@<TRIPOS>MOLECULE
KXNPVXPOPUZYGB-MXSMSXNCSA-N_1_1
71 73 1
SMALL
GASTEIGER
@<TRIPOS>ATOM
1	C1     8.6534    -1.3146     6.2847	C.3	1	noname	-0.0624
2	C2     8.8069    -0.8701     4.8291	C.3	1	noname	-0.0403
3	C3     9.3089     0.5653     4.7177	C.3	1	noname	-0.0327
4	C4     9.4753     0.9651     3.2555	C.3	1	noname	0.0215
5	N1     8.2532     0.8415     2.4548	N.3	1	noname	-0.3330
6	C5     7.5294    -0.4576     2.6331	C.3	1	noname	0.0717
7	C6     7.4743    -0.9630     4.0865	C.3	1	noname	-0.0245
8	C7     8.0074    -1.5693     1.6382	C.2	1	noname	0.0641
9	O1     7.5223    -1.4138     0.4723	O.3	1	noname	-0.5479
10	O2     8.7987    -2.4434     2.0718	O.2	1	noname	-0.5479
11	C8     8.3045     1.5315     1.2291	C.2	1	noname	0.2408
12	O3     9.2738     2.2854     1.0007	O.2	1	noname	-0.2730
13	C9     7.1843     1.5324     0.1232	C.3	1	noname	0.1010
14	C10     6.7764     3.0109    -0.0655	C.3	1	noname	-0.0247
15	C11     6.7225     3.4475    -1.5332	C.3	1	noname	-0.0203
16	C12     6.4248     4.9438    -1.6356	C.3	1	noname	0.0639
17	N2     5.3806     5.2165    -2.6376	N.3	1	noname	-0.2784
18	C13     4.6714     6.3504    -2.7068	C.2	1	noname	0.3383
19	N3     4.8729     7.3708    -1.8700	N.3	1	noname	-0.2910
20	N4     3.7314     6.4857    -3.6467	N.2	1	noname	-0.2910
21	N5     5.9823     0.6643     0.3332	N.3	1	noname	-0.1986
22	S1     4.9166     0.3155    -0.9430	S	1	noname	0.2429
23	O4     4.1466    -0.8286    -0.4960	O.2	1	noname	-0.2070
24	O5     5.7272     0.2293    -2.1441	O.2	1	noname	-0.2070
25	C14     3.7712     1.6269    -1.1596	C.2	1	noname	0.1054
26	C15     3.4295     2.3819    -0.0930	C.2	1	noname	-0.0400
27	C16     2.5660     3.4040    -0.2425	C.2	1	noname	-0.0605
28	C17     2.0126     3.6550    -1.4451	C.2	1	noname	-0.0569
29	C18     2.3078     2.8748    -2.5104	C.2	1	noname	-0.0231
30	C19     1.6116     3.0701    -3.8368	C.3	1	noname	-0.0215
31	C20     2.5121     2.8167    -5.0591	C.3	1	noname	-0.0227
32	C21     1.6589     2.4859    -6.2860	C.3	1	noname	-0.0605
33	C22     3.5898     1.7474    -4.8173	C.3	1	noname	0.0176
34	N6     3.4532     1.0360    -3.5613	N.3	1	noname	-0.3834
35	C23     3.2042     1.8639    -2.3691	C.2	1	noname	0.0576
36	H1     8.3234    -2.3589     6.3335	H	1	noname	0.0233
37	H2     7.9188    -0.7051     6.8220	H	1	noname	0.0233
38	H3     9.6078    -1.2447     6.8176	H	1	noname	0.0233
39	H4     9.5420    -1.5364     4.3634	H	1	noname	0.0301
40	H5    10.2687     0.6755     5.2346	H	1	noname	0.0287
41	H6     8.6024     1.2493     5.2044	H	1	noname	0.0287
42	H7     9.8180     2.0063     3.2344	H	1	noname	0.0494
43	H8    10.2524     0.3573     2.7750	H	1	noname	0.0494
44	H9     6.4806    -0.2603     2.4044	H	1	noname	0.0595
45	H10     6.7312    -0.3589     4.6264	H	1	noname	0.0294
46	H11     7.1054    -1.9964     4.1123	H	1	noname	0.0294
47	H12     7.7095     1.1661    -0.7690	H	1	noname	0.0579
48	H13     7.4795     3.6881     0.4351	H	1	noname	0.0289
49	H14     5.8243     3.2133     0.4296	H	1	noname	0.0289
50	H15     7.6857     3.2463    -2.0184	H	1	noname	0.0300
51	H16     5.9794     2.8635    -2.0779	H	1	noname	0.0300
52	H17     7.3317     5.4753    -1.9431	H	1	noname	0.0664
53	H18     6.0847     5.3322    -0.6705	H	1	noname	0.0664
54	H19     5.1434     4.4706    -3.2801	H	1	noname	0.2596
55	H20     4.3198     8.2142    -1.9212	H	1	noname	0.2563
56	H21     5.5720     7.3166    -1.1407	H	1	noname	0.2563
57	H22     3.5692     5.7471    -4.3153	H	1	noname	0.2563
58	H23     3.1656     7.3215    -3.7243	H	1	noname	0.2563
59	H24     6.4051    -0.2945     0.4416	H	1	noname	0.1418
60	H25     3.8442     2.1682     0.8903	H	1	noname	0.0638
61	H26     2.2949     4.0084     0.6185	H	1	noname	0.0623
62	H27     1.2901     4.4623    -1.5350	H	1	noname	0.0626
63	H28     1.1953     4.0824    -3.9171	H	1	noname	0.0320
64	H29     0.7499     2.3899    -3.8630	H	1	noname	0.0320
65	H30     3.0371     3.7552    -5.2811	H	1	noname	0.0321
66	H31     2.2875     2.3668    -7.1740	H	1	noname	0.0234
67	H32     0.9426     3.2892    -6.4857	H	1	noname	0.0234
68	H33     1.0978     1.5570    -6.1425	H	1	noname	0.0234
69	H34     4.5734     2.2335    -4.8288	H	1	noname	0.0493
70	H35     3.6081     1.0149    -5.6306	H	1	noname	0.0493
71	H36     4.2166     0.3569    -3.4398	H	1	noname	0.1601
@<TRIPOS>BOND
1	2	1	1
2	2	3	1
3	3	4	1
4	4	5	1
5	6	5	1
6	6	7	1
7	2	7	1
8	6	8	1
9	8	9	1
10	8	10	2
11	5	11	1
12	11	12	2
13	13	11	1
14	13	14	1
15	14	15	1
16	15	16	1
17	16	17	1
18	17	18	1
19	18	19	1
20	18	20	2
21	13	21	1
22	21	22	1
23	22	23	2
24	22	24	2
25	22	25	1
26	25	26	2
27	26	27	1
28	27	28	2
29	28	29	1
30	29	30	1
31	31	30	1
32	31	32	1
33	31	33	1
34	33	34	1
35	34	35	1
36	25	35	1
37	29	35	2
38	1	36	1
39	1	37	1
40	1	38	1
41	2	39	1
42	3	40	1
43	3	41	1
44	4	42	1
45	4	43	1
46	6	44	1
47	7	45	1
48	7	46	1
49	13	47	1
50	14	48	1
51	14	49	1
52	15	50	1
53	15	51	1
54	16	52	1
55	16	53	1
56	17	54	1
57	19	55	1
58	19	56	1
59	20	57	1
60	20	58	1
61	21	59	1
62	26	60	1
63	27	61	1
64	28	62	1
65	30	63	1
66	30	64	1
67	31	65	1
68	32	66	1
69	32	67	1
70	32	68	1
71	33	69	1
72	33	70	1
73	34	71	1
@<TRIPOS>SUBSTRUCTURE
1	noname	1
@<TRIPOS>MOLECULE
KXNPVXPOPUZYGB-FZCLSBEQSA-N_1_1
71 73 1
SMALL
GASTEIGER
@<TRIPOS>ATOM
1	C1     8.5572    -2.1508    -5.9648	C.3	1	noname	-0.0624
2	C2     8.6304    -2.4686    -4.4709	C.3	1	noname	-0.0403
3	C3     8.2119    -3.9049    -4.1526	C.3	1	noname	-0.0327
4	C4     6.7130    -4.1250    -4.3049	C.3	1	noname	0.0215
5	N1     5.9157    -3.1684    -3.5456	N.3	1	noname	-0.3330
6	C5     6.2782    -1.7254    -3.7251	C.3	1	noname	0.0717
7	C6     7.7960    -1.4989    -3.6280	C.3	1	noname	-0.0245
8	C7     5.6364    -0.9890    -4.9485	C.2	1	noname	0.0641
9	O1     6.0106     0.1989    -5.1349	O.3	1	noname	-0.5479
10	O2     4.7424    -1.6423    -5.5680	O.2	1	noname	-0.5479
11	C8     4.6535    -3.6108    -3.1370	C.2	1	noname	0.2408
12	O3     4.4156    -4.8084    -2.9357	O.2	1	noname	-0.2730
13	C9     3.5168    -2.5798    -2.9687	C.3	1	noname	0.1010
14	C10     2.6516    -2.9076    -1.7463	C.3	1	noname	-0.0247
15	C11     1.5917    -1.8299    -1.4899	C.3	1	noname	-0.0203
16	C12     0.5974    -2.2971    -0.4413	C.3	1	noname	0.0639
17	N2    -0.2315    -1.1814     0.0310	N.3	1	noname	-0.2784
18	C13    -1.1866    -1.3196     0.9559	C.2	1	noname	0.3383
19	N3    -1.8646    -0.2478     1.3834	N.3	1	noname	-0.2910
20	N4    -1.4784    -2.5171     1.4767	N.2	1	noname	-0.2910
21	N5     2.7123    -2.3905    -4.2119	N.3	1	noname	-0.1986
22	S1     1.7212    -3.5937    -4.8643	S	1	noname	0.2429
23	O4     1.0506    -2.9471    -5.9797	O.2	1	noname	-0.2070
24	O5     0.8810    -4.0403    -3.7584	O.2	1	noname	-0.2070
25	C14     2.6733    -4.9118    -5.5065	C.2	1	noname	0.1054
26	C15     3.6223    -4.6061    -6.4215	C.2	1	noname	-0.0400
27	C16     4.3669    -5.5821    -6.9751	C.2	1	noname	-0.0605
28	C17     4.1737    -6.8639    -6.6155	C.2	1	noname	-0.0569
29	C18     3.2245    -7.1918    -5.7065	C.2	1	noname	-0.0231
30	C19     3.0349    -8.6468    -5.3255	C.3	1	noname	-0.0215
31	C20     2.3805    -8.9140    -3.9520	C.3	1	noname	-0.0227
32	C21     1.2523    -9.9412    -4.0893	C.3	1	noname	-0.0605
33	C22     1.9064    -7.6422    -3.2427	C.3	1	noname	0.0176
34	N6     1.3932    -6.6580    -4.1807	N.3	1	noname	-0.3834
35	C23     2.4668    -6.2064    -5.1565	C.2	1	noname	0.0576
36	H1     8.8913    -1.1248    -6.1547	H	1	noname	0.0233
37	H2     7.5485    -2.2487    -6.3735	H	1	noname	0.0233
38	H3     9.2086    -2.8213    -6.5351	H	1	noname	0.0233
39	H4     9.6812    -2.3532    -4.1750	H	1	noname	0.0301
40	H5     8.4957    -4.1318    -3.1166	H	1	noname	0.0287
41	H6     8.7542    -4.6116    -4.7909	H	1	noname	0.0287
42	H7     6.4709    -5.1514    -4.0090	H	1	noname	0.0494
43	H8     6.4185    -4.0272    -5.3550	H	1	noname	0.0494
44	H9     5.8695    -1.1968    -2.8554	H	1	noname	0.0595
45	H10     8.0627    -0.4643    -3.8748	H	1	noname	0.0294
46	H11     8.0895    -1.6367    -2.5778	H	1	noname	0.0294
47	H12     3.9441    -1.6004    -2.7468	H	1	noname	0.0579
48	H13     3.3024    -2.9681    -0.8596	H	1	noname	0.0289
49	H14     2.1965    -3.9023    -1.8280	H	1	noname	0.0289
50	H15     2.0846    -0.9072    -1.1569	H	1	noname	0.0300
51	H16     1.0325    -1.5772    -2.4005	H	1	noname	0.0300
52	H17     1.1320    -2.7022     0.4256	H	1	noname	0.0664
53	H18    -0.0561    -3.0646    -0.8737	H	1	noname	0.0664
54	H19    -0.0706    -0.2643    -0.3666	H	1	noname	0.2596
55	H20    -2.5937    -0.3301     2.0819	H	1	noname	0.2563
56	H21    -1.6730     0.6760     1.0135	H	1	noname	0.2563
57	H22    -1.0065    -3.3533     1.1519	H	1	noname	0.2563
58	H23    -2.1971    -2.6380     2.1731	H	1	noname	0.2563
59	H24     3.3448    -2.0195    -4.9680	H	1	noname	0.1418
60	H25     3.7974    -3.5779    -6.7320	H	1	noname	0.0638
61	H26     5.1238    -5.3288    -7.7135	H	1	noname	0.0623
62	H27     4.7830    -7.6384    -7.0769	H	1	noname	0.0626
63	H28     4.0090    -9.1547    -5.3249	H	1	noname	0.0320
64	H29     2.4510    -9.1264    -6.1229	H	1	noname	0.0320
65	H30     3.1388    -9.3733    -3.3034	H	1	noname	0.0321
66	H31     0.8156   -10.1718    -3.1111	H	1	noname	0.0234
67	H32     1.6380   -10.8793    -4.5044	H	1	noname	0.0234
68	H33     0.4518    -9.5816    -4.7443	H	1	noname	0.0234
69	H34     2.7354    -7.2057    -2.6713	H	1	noname	0.0493
70	H35     1.1248    -7.8790    -2.5113	H	1	noname	0.0493
71	H36     0.9943    -5.8508    -3.6906	H	1	noname	0.1601
@<TRIPOS>BOND
1	2	1	1
2	2	3	1
3	3	4	1
4	4	5	1
5	6	5	1
6	6	7	1
7	2	7	1
8	6	8	1
9	8	9	1
10	8	10	2
11	5	11	1
12	11	12	2
13	13	11	1
14	13	14	1
15	14	15	1
16	15	16	1
17	16	17	1
18	17	18	1
19	18	19	1
20	18	20	2
21	13	21	1
22	21	22	1
23	22	23	2
24	22	24	2
25	22	25	1
26	25	26	2
27	26	27	1
28	27	28	2
29	28	29	1
30	29	30	1
31	31	30	1
32	31	32	1
33	31	33	1
34	33	34	1
35	34	35	1
36	25	35	1
37	29	35	2
38	1	36	1
39	1	37	1
40	1	38	1
41	2	39	1
42	3	40	1
43	3	41	1
44	4	42	1
45	4	43	1
46	6	44	1
47	7	45	1
48	7	46	1
49	13	47	1
50	14	48	1
51	14	49	1
52	15	50	1
53	15	51	1
54	16	52	1
55	16	53	1
56	17	54	1
57	19	55	1
58	19	56	1
59	20	57	1
60	20	58	1
61	21	59	1
62	26	60	1
63	27	61	1
64	28	62	1
65	30	63	1
66	30	64	1
67	31	65	1
68	32	66	1
69	32	67	1
70	32	68	1
71	33	69	1
72	33	70	1
73	34	71	1
@<TRIPOS>SUBSTRUCTURE
1	noname	1
@<TRIPOS>MOLECULE
KXNPVXPOPUZYGB-LAQRGFTBSA-N_1_1
71 73 1
SMALL
GASTEIGER
@<TRIPOS>ATOM
1	C1    10.3619    -2.6610    -3.8860	C.3	1	noname	-0.0624
2	C2     8.8688    -2.8022    -4.1621	C.3	1	noname	-0.0403
3	C3     8.3918    -4.2238    -3.8493	C.3	1	noname	-0.0327
4	C4     6.9025    -4.3604    -4.1273	C.3	1	noname	0.0215
5	N1     6.1075    -3.3742    -3.4046	N.3	1	noname	-0.3330
6	C5     6.5399    -1.9507    -3.5817	C.3	1	noname	0.0717
7	C6     8.0519    -1.8082    -3.3301	C.3	1	noname	-0.0245
8	C7     6.0719    -1.2573    -4.9109	C.2	1	noname	0.0641
9	O1     6.6895    -0.2126    -5.2440	O.3	1	noname	-0.5479
10	O2     5.0701    -1.7990    -5.4730	O.2	1	noname	-0.5479
11	C8     4.8184    -3.7627    -3.0489	C.2	1	noname	0.2408
12	O3     4.5390    -4.9457    -2.8202	O.2	1	noname	-0.2730
13	C9     3.7068    -2.6961    -2.9724	C.3	1	noname	0.1010
14	C10     2.8030    -2.9564    -1.7651	C.3	1	noname	-0.0247
15	C11     1.7408    -1.8737    -1.5668	C.3	1	noname	-0.0203
16	C12     0.7328    -2.3322    -0.5236	C.3	1	noname	0.0639
17	N2    -0.0889    -1.2160    -0.0356	N.3	1	noname	-0.2784
18	C13    -1.0503    -1.3625     0.8873	C.2	1	noname	0.3383
19	N3    -1.7064    -0.2892     1.3356	N.3	1	noname	-0.2910
20	N4    -1.3684    -2.5600     1.3869	N.2	1	noname	-0.2910
21	N5     2.9566    -2.5440    -4.2556	N.3	1	noname	-0.1986
22	S1     1.9790    -3.7592    -4.9065	S	1	noname	0.2429
23	O4     1.3502    -3.1367    -6.0593	O.2	1	noname	-0.2070
24	O5     1.1005    -4.1714    -3.8179	O.2	1	noname	-0.2070
25	C14     2.9337    -5.1036    -5.4848	C.2	1	noname	0.1054
26	C15     3.9327    -4.8323    -6.3557	C.2	1	noname	-0.0400
27	C16     4.6968    -5.8296    -6.8408	C.2	1	noname	-0.0605
28	C17     4.4667    -7.1008    -6.4643	C.2	1	noname	-0.0569
29	C18     3.4559    -7.3959    -5.6143	C.2	1	noname	-0.0231
30	C19     3.2046    -8.8373    -5.2274	C.3	1	noname	-0.0215
31	C20     2.5019    -9.0691    -3.8693	C.3	1	noname	-0.0227
32	C21     1.3704   -10.0906    -4.0196	C.3	1	noname	-0.0605
33	C22     2.0116    -7.7727    -3.2153	C.3	1	noname	0.0176
34	N6     1.5476    -6.8108    -4.2047	N.3	1	noname	-0.3834
35	C23     2.6837    -6.3886    -5.1283	C.2	1	noname	0.0576
36	H1    10.6986    -1.6398    -4.0854	H	1	noname	0.0233
37	H2    10.9362    -3.3338    -4.5308	H	1	noname	0.0233
38	H3    10.6020    -2.9023    -2.8460	H	1	noname	0.0233
39	H4     8.7009    -2.5975    -5.2278	H	1	noname	0.0301
40	H5     8.5877    -4.4635    -2.7960	H	1	noname	0.0287
41	H6     8.9426    -4.9521    -4.4552	H	1	noname	0.0287
42	H7     6.5773    -5.3789    -3.8916	H	1	noname	0.0494
43	H8     6.7108    -4.2055    -5.1959	H	1	noname	0.0494
44	H9     6.0656    -1.3686    -2.7826	H	1	noname	0.0595
45	H10     8.3919    -0.7855    -3.5299	H	1	noname	0.0294
46	H11     8.2466    -1.9918    -2.2648	H	1	noname	0.0294
47	H12     4.1456    -1.7149    -2.7861	H	1	noname	0.0579
48	H13     3.4320    -2.9944    -0.8621	H	1	noname	0.0289
49	H14     2.3392    -3.9465    -1.8215	H	1	noname	0.0289
50	H15     2.2188    -0.9360    -1.2586	H	1	noname	0.0300
51	H16     1.1997    -1.6609    -2.4956	H	1	noname	0.0300
52	H17     1.2551    -2.7720     0.3345	H	1	noname	0.0664
53	H18     0.0606    -3.0700    -0.9735	H	1	noname	0.0664
54	H19     0.0603    -0.3004    -0.4399	H	1	noname	0.2596
55	H20    -2.4247    -0.3688     2.0423	H	1	noname	0.2563
56	H21    -1.5057     0.6342     0.9753	H	1	noname	0.2563
57	H22    -0.9082    -3.3962     1.0472	H	1	noname	0.2563
58	H23    -2.0920    -2.6802     2.0801	H	1	noname	0.2563
59	H24     3.6340    -2.1962    -4.9820	H	1	noname	0.1418
60	H25     4.1395    -3.8130    -6.6779	H	1	noname	0.0638
61	H26     5.5001    -5.6057    -7.5387	H	1	noname	0.0623
62	H27     5.0901    -7.8953    -6.8664	H	1	noname	0.0626
63	H28     4.1591    -9.3796    -5.1980	H	1	noname	0.0320
64	H29     2.6221    -9.2987    -6.0368	H	1	noname	0.0320
65	H30     3.2354    -9.5157    -3.1834	H	1	noname	0.0321
66	H31     0.9288   -10.3216    -3.0441	H	1	noname	0.0234
67	H32     1.7523   -11.0285    -4.4379	H	1	noname	0.0234
68	H33     0.5756    -9.7204    -4.6754	H	1	noname	0.0234
69	H34     2.8225    -7.3258    -2.6249	H	1	noname	0.0493
70	H35     1.1993    -7.9813    -2.5093	H	1	noname	0.0493
71	H36     1.1297    -5.9891    -3.7542	H	1	noname	0.1601
@<TRIPOS>BOND
1	2	1	1
2	2	3	1
3	3	4	1
4	4	5	1
5	6	5	1
6	6	7	1
7	2	7	1
8	6	8	1
9	8	9	1
10	8	10	2
11	5	11	1
12	11	12	2
13	13	11	1
14	13	14	1
15	14	15	1
16	15	16	1
17	16	17	1
18	17	18	1
19	18	19	1
20	18	20	2
21	13	21	1
22	21	22	1
23	22	23	2
24	22	24	2
25	22	25	1
26	25	26	2
27	26	27	1
28	27	28	2
29	28	29	1
30	29	30	1
31	31	30	1
32	31	32	1
33	31	33	1
34	33	34	1
35	34	35	1
36	25	35	1
37	29	35	2
38	1	36	1
39	1	37	1
40	1	38	1
41	2	39	1
42	3	40	1
43	3	41	1
44	4	42	1
45	4	43	1
46	6	44	1
47	7	45	1
48	7	46	1
49	13	47	1
50	14	48	1
51	14	49	1
52	15	50	1
53	15	51	1
54	16	52	1
55	16	53	1
56	17	54	1
57	19	55	1
58	19	56	1
59	20	57	1
60	20	58	1
61	21	59	1
62	26	60	1
63	27	61	1
64	28	62	1
65	30	63	1
66	30	64	1
67	31	65	1
68	32	66	1
69	32	67	1
70	32	68	1
71	33	69	1
72	33	70	1
73	34	71	1
@<TRIPOS>SUBSTRUCTURE
1	noname	1
@<TRIPOS>MOLECULE
ZCYRWCFYQPFHSM-BHYGNILZSA-N_1_1
68 70 1
SMALL
GASTEIGER
@<TRIPOS>ATOM
1	C1    -3.6411    -2.6791    -1.5503	C.3	1	noname	-0.0605
2	C2    -4.1995    -2.4823    -0.1368	C.3	1	noname	-0.0227
3	C3    -3.9757    -1.0603     0.3775	C.3	1	noname	0.0176
4	N1    -2.5715    -0.8171     0.6176	N.3	1	noname	-0.3834
5	C4    -1.7175    -1.8266     1.2100	C.2	1	noname	0.0576
6	C5    -2.1913    -3.0994     1.3150	C.2	1	noname	-0.0231
7	C6    -3.5883    -3.4716     0.8617	C.3	1	noname	-0.0215
8	C7    -1.4026    -4.0698     1.8381	C.2	1	noname	-0.0569
9	C8    -0.1552    -3.7922     2.2582	C.2	1	noname	-0.0605
10	C9     0.3187    -2.5376     2.1561	C.2	1	noname	-0.0400
11	C10    -0.4567    -1.5569     1.6334	C.2	1	noname	0.1054
12	S1     0.2470     0.0489     1.5985	S	1	noname	0.2429
13	O1     1.0782     0.1760     2.7852	O.2	1	noname	-0.2070
14	O2    -0.7831     1.0417     1.3804	O.2	1	noname	-0.2070
15	N2     1.3534     0.1136     0.3278	N.3	1	noname	-0.1986
16	C11     0.9756    -0.0523    -1.1094	C.3	1	noname	0.1010
17	C12     1.0161    -1.5511    -1.4679	C.3	1	noname	-0.0247
18	C13     2.3322    -2.2183    -1.0540	C.3	1	noname	-0.0203
19	C14     2.2743    -3.7301    -1.2235	C.3	1	noname	0.0639
20	N3     3.4919    -4.3511    -0.6674	N.3	1	noname	-0.2784
21	C15     3.5950    -5.6299    -0.2872	C.2	1	noname	0.3383
22	N4     4.7263    -6.0652     0.2788	N.3	1	noname	-0.2910
23	N5     2.5961    -6.5006    -0.4554	N.2	1	noname	-0.2910
24	C16    -0.3252     0.6225    -1.5933	C.2	1	noname	0.2408
25	O3    -1.1949    -0.0739    -2.1365	O.2	1	noname	-0.2730
26	N6    -0.4739     2.0001    -1.4754	N.3	1	noname	-0.3331
27	C17    -1.7376     2.5988    -1.8930	C.3	1	noname	0.0212
28	C18    -2.3292     3.4574    -0.7803	C.3	1	noname	-0.0353
29	C19    -1.3486     4.5110    -0.2593	C.3	1	noname	-0.0493
30	C20     0.0426     4.3851    -0.8796	C.3	1	noname	-0.0271
31	C21     0.5107     2.9284    -0.8284	C.3	1	noname	0.0714
32	C22     1.9736     2.8651    -1.3434	C.2	1	noname	0.0640
33	O4     2.7749     2.3163    -0.5193	O.3	1	noname	-0.5479
34	O5     2.1873     3.2607    -2.5200	O.2	1	noname	-0.5479
35	H1    -4.0777    -1.9460    -2.2364	H	1	noname	0.0234
36	H2    -3.8963    -3.6759    -1.9246	H	1	noname	0.0234
37	H3    -2.5525    -2.5763    -1.5950	H	1	noname	0.0234
38	H4    -5.2790    -2.6678    -0.1874	H	1	noname	0.0321
39	H5    -4.3530    -0.3373    -0.3574	H	1	noname	0.0493
40	H6    -4.5467    -0.9006     1.3012	H	1	noname	0.0493
41	H7    -2.3048     0.1679     0.7270	H	1	noname	0.1601
42	H8    -3.5983    -4.4774     0.4234	H	1	noname	0.0320
43	H9    -4.2271    -3.5156     1.7553	H	1	noname	0.0320
44	H10    -1.7822    -5.0831     1.9371	H	1	noname	0.0626
45	H11     0.4592    -4.5713     2.6980	H	1	noname	0.0623
46	H12     1.3221    -2.3176     2.5162	H	1	noname	0.0638
47	H13     1.9703     0.9535     0.4061	H	1	noname	0.1418
48	H14     1.7751     0.3897    -1.7143	H	1	noname	0.0579
49	H15     0.1688    -2.0734    -1.0150	H	1	noname	0.0289
50	H16     0.8868    -1.6682    -2.5525	H	1	noname	0.0289
51	H17     3.1620    -1.8086    -1.6437	H	1	noname	0.0300
52	H18     2.5638    -2.0113    -0.0021	H	1	noname	0.0300
53	H19     1.4077    -4.1193    -0.6798	H	1	noname	0.0664
54	H20     2.2038    -4.0010    -2.2820	H	1	noname	0.0664
55	H21     4.2830    -3.7405    -0.4964	H	1	noname	0.2596
56	H22     4.8318    -7.0236     0.5821	H	1	noname	0.2563
57	H23     5.5137    -5.4473     0.4302	H	1	noname	0.2563
58	H24     2.6688    -7.4624    -0.1551	H	1	noname	0.2563
59	H25     1.7340    -6.2173    -0.9019	H	1	noname	0.2563
60	H26    -1.5423     3.2000    -2.7882	H	1	noname	0.0494
61	H27    -2.4706     1.8372    -2.1793	H	1	noname	0.0494
62	H28    -3.2440     3.9475    -1.1317	H	1	noname	0.0285
63	H29    -2.6279     2.8060     0.0515	H	1	noname	0.0285
64	H30    -1.7446     5.5161    -0.4425	H	1	noname	0.0268
65	H31    -1.2716     4.4073     0.8307	H	1	noname	0.0268
66	H32     0.0145     4.7498    -1.9142	H	1	noname	0.0292
67	H33     0.7452     5.0308    -0.3393	H	1	noname	0.0292
68	H34     0.5400     2.6569     0.2288	H	1	noname	0.0595
@<TRIPOS>BOND
1	2	1	1
2	2	3	1
3	3	4	1
4	4	5	1
5	5	6	2
6	6	7	1
7	2	7	1
8	6	8	1
9	8	9	2
10	9	10	1
11	10	11	2
12	5	11	1
13	11	12	1
14	12	13	2
15	12	14	2
16	12	15	1
17	16	15	1
18	16	17	1
19	17	18	1
20	18	19	1
21	19	20	1
22	20	21	1
23	21	22	1
24	21	23	2
25	16	24	1
26	24	25	2
27	24	26	1
28	26	27	1
29	27	28	1
30	28	29	1
31	29	30	1
32	31	30	1
33	31	26	1
34	31	32	1
35	32	33	1
36	32	34	2
37	1	35	1
38	1	36	1
39	1	37	1
40	2	38	1
41	3	39	1
42	3	40	1
43	4	41	1
44	7	42	1
45	7	43	1
46	8	44	1
47	9	45	1
48	10	46	1
49	15	47	1
50	16	48	1
51	17	49	1
52	17	50	1
53	18	51	1
54	18	52	1
55	19	53	1
56	19	54	1
57	20	55	1
58	22	56	1
59	22	57	1
60	23	58	1
61	23	59	1
62	27	60	1
63	27	61	1
64	28	62	1
65	28	63	1
66	29	64	1
67	29	65	1
68	30	66	1
69	30	67	1
70	31	68	1
@<TRIPOS>SUBSTRUCTURE
1	noname	1
@<TRIPOS>MOLECULE
KHNKFMYMQCWAQB-WMZOPIPTSA-N_1_1
69 71 1
SMALL
GASTEIGER
@<TRIPOS>ATOM
1	C1     8.5285    -0.2773     6.3755	C.3	1	noname	-0.0624
2	C2     8.6191     0.0126     4.8798	C.3	1	noname	-0.0409
3	C3     9.1956     1.4004     4.6183	C.3	1	noname	-0.0328
4	C4     9.3279     1.6507     3.1199	C.3	1	noname	0.0208
5	N1     8.1025     1.4227     2.3362	N.3	1	noname	-0.3413
6	C5     7.2756     0.2853     2.7349	C.3	1	noname	0.0208
7	C6     7.2420    -0.0426     4.2271	C.3	1	noname	-0.0328
8	C7     8.1967     1.8631     1.0094	C.2	1	noname	0.2403
9	O1     9.2039     2.4950     0.6442	O.2	1	noname	-0.2730
10	C8     7.0710     1.7186    -0.0642	C.3	1	noname	0.1010
11	C9     6.5135     3.1391    -0.2880	C.3	1	noname	-0.0247
12	C10     6.4346     3.4988    -1.7770	C.3	1	noname	-0.0203
13	C11     5.9713     4.9399    -1.9884	C.3	1	noname	0.0639
14	N2     4.9659     5.0246    -3.0610	N.3	1	noname	-0.2784
15	C12     4.2177     6.1068    -3.3184	C.2	1	noname	0.3383
16	N3     4.3070     7.2209    -2.5888	N.3	1	noname	-0.2910
17	N4     3.3598     6.0836    -4.3418	N.2	1	noname	-0.2910
18	N5     5.9711     0.7277     0.1633	N.3	1	noname	-0.1986
19	S1     5.0161     0.2033    -1.1559	S	1	noname	0.2429
20	O2     4.4505    -1.0362    -0.6681	O.2	1	noname	-0.2070
21	O3     5.9215     0.1750    -2.2902	O.2	1	noname	-0.2070
22	C13     3.7138     1.3208    -1.4722	C.2	1	noname	0.1054
23	C14     3.2585     2.0936    -0.4615	C.2	1	noname	-0.0400
24	C15     2.2820     2.9940    -0.6887	C.2	1	noname	-0.0605
25	C16     1.7281     3.0919    -1.9110	C.2	1	noname	-0.0569
26	C17     2.1472     2.2955    -2.9238	C.2	1	noname	-0.0231
27	C18     1.4582     2.3532    -4.2675	C.3	1	noname	-0.0215
28	C19     2.3855     2.1054    -5.4681	C.3	1	noname	-0.0227
29	C20     1.5562     1.6200    -6.6603	C.3	1	noname	-0.0605
30	C21     3.5574     1.1595    -5.1628	C.3	1	noname	0.0176
31	N6     3.5361     0.5564    -3.8412	N.3	1	noname	-0.3834
32	C22     3.1569     1.4132    -2.7078	C.2	1	noname	0.0576
33	H1     8.1494    -1.2889     6.5491	H	1	noname	0.0233
34	H2     7.8574     0.4253     6.8794	H	1	noname	0.0233
35	H3     9.5127    -0.2035     6.8483	H	1	noname	0.0233
36	H4     9.2716    -0.7424     4.4218	H	1	noname	0.0301
37	H5    10.1805     1.5020     5.0901	H	1	noname	0.0287
38	H6     8.5468     2.1676     5.0616	H	1	noname	0.0287
39	H7     9.6547     2.6888     2.9717	H	1	noname	0.0494
40	H8    10.1092     1.0025     2.7020	H	1	noname	0.0494
41	H9     6.2430     0.4923     2.4503	H	1	noname	0.0494
42	H10     7.6343    -0.5856     2.1741	H	1	noname	0.0494
43	H11     6.5744     0.6713     4.7262	H	1	noname	0.0287
44	H12     6.7953    -1.0346     4.3626	H	1	noname	0.0287
45	H13     7.6302     1.3766    -0.9470	H	1	noname	0.0579
46	H14     7.1562     3.8899     0.1917	H	1	noname	0.0289
47	H15     5.5387     3.2587     0.1943	H	1	noname	0.0289
48	H16     7.4223     3.3628    -2.2327	H	1	noname	0.0300
49	H17     5.7700     2.8122    -2.3006	H	1	noname	0.0300
50	H18     6.8280     5.5636    -2.2731	H	1	noname	0.0664
51	H19     5.5089     5.3248    -1.0762	H	1	noname	0.0664
52	H20     4.7814     4.1948    -3.6126	H	1	noname	0.2596
53	H21     3.7478     8.0382    -2.7972	H	1	noname	0.2563
54	H22     4.9586     7.2892    -1.8178	H	1	noname	0.2563
55	H23     3.3081     5.2887    -4.9644	H	1	noname	0.2563
56	H24     2.7622     6.8732    -4.5528	H	1	noname	0.2563
57	H25     6.3570    -0.1583     0.5017	H	1	noname	0.1418
58	H26     3.6627     2.0004     0.5444	H	1	noname	0.0638
59	H27     1.9182     3.6192     0.1244	H	1	noname	0.0623
60	H28     0.9031     3.7866    -2.0613	H	1	noname	0.0626
61	H29     0.9714     3.3281    -4.4097	H	1	noname	0.0320
62	H30     0.6494     1.6099    -4.2555	H	1	noname	0.0320
63	H31     2.8245     3.0720    -5.7516	H	1	noname	0.0321
64	H32     2.1823     1.4523    -7.5422	H	1	noname	0.0234
65	H33     0.7940     2.3600    -6.9291	H	1	noname	0.0234
66	H34     1.0444     0.6804    -6.4257	H	1	noname	0.0234
67	H35     4.4929     1.7270    -5.2578	H	1	noname	0.0493
68	H36     3.6216     0.3609    -5.9105	H	1	noname	0.0493
69	H37     4.3633    -0.0299    -3.6934	H	1	noname	0.1601
@<TRIPOS>BOND
1	1	2	1
2	2	3	1
3	3	4	1
4	4	5	1
5	5	6	1
6	6	7	1
7	2	7	1
8	5	8	1
9	8	9	2
10	10	8	1
11	10	11	1
12	11	12	1
13	12	13	1
14	13	14	1
15	14	15	1
16	15	16	1
17	15	17	2
18	10	18	1
19	18	19	1
20	19	20	2
21	19	21	2
22	19	22	1
23	22	23	2
24	23	24	1
25	24	25	2
26	25	26	1
27	26	27	1
28	28	27	1
29	28	29	1
30	28	30	1
31	30	31	1
32	31	32	1
33	22	32	1
34	26	32	2
35	1	33	1
36	1	34	1
37	1	35	1
38	2	36	1
39	3	37	1
40	3	38	1
41	4	39	1
42	4	40	1
43	6	41	1
44	6	42	1
45	7	43	1
46	7	44	1
47	10	45	1
48	11	46	1
49	11	47	1
50	12	48	1
51	12	49	1
52	13	50	1
53	13	51	1
54	14	52	1
55	16	53	1
56	16	54	1
57	17	55	1
58	17	56	1
59	18	57	1
60	23	58	1
61	24	59	1
62	25	60	1
63	27	61	1
64	27	62	1
65	28	63	1
66	29	64	1
67	29	65	1
68	29	66	1
69	30	67	1
70	30	68	1
71	31	69	1
@<TRIPOS>SUBSTRUCTURE
1	noname	1
@<TRIPOS>MOLECULE
KDNDVBMJUDSBGG-RDJZCZTQSA-N_1_1
66 68 1
SMALL
GASTEIGER
@<TRIPOS>ATOM
1	C1    -4.9736    -1.8598    -0.0592	C.3	1	noname	-0.0605
2	C2    -4.7394    -1.5459     1.4209	C.3	1	noname	-0.0227
3	C3    -3.9865    -0.2313     1.6044	C.3	1	noname	0.0176
4	N1    -2.6277    -0.3435     1.0799	N.3	1	noname	-0.3834
5	C4    -1.8157    -1.4766     1.6927	C.2	1	noname	0.0576
6	C5    -2.4835    -2.5536     2.1871	C.2	1	noname	-0.0231
7	C6    -3.9970    -2.6799     2.1479	C.3	1	noname	-0.0215
8	C7    -1.7783    -3.5470     2.7831	C.2	1	noname	-0.0569
9	C8    -0.4373    -3.4829     2.8788	C.2	1	noname	-0.0605
10	C9     0.2231    -2.4289     2.3631	C.2	1	noname	-0.0400
11	C10    -0.4630    -1.4275     1.7664	C.2	1	noname	0.1054
12	S1     0.4332    -0.0635     1.1514	S	1	noname	0.2429
13	O1     1.7917    -0.0631     1.6545	O.2	1	noname	-0.2070
14	O2    -0.3536     1.1466     1.3296	O.2	1	noname	-0.2070
15	N2     0.5247    -0.2068    -0.5362	N.3	1	noname	-0.1986
16	C11     1.5848    -1.0107    -1.2024	C.3	1	noname	0.1010
17	C12     2.9853    -0.3983    -0.9751	C.3	1	noname	-0.0247
18	C13     3.0552     1.1204    -1.1628	C.3	1	noname	-0.0203
19	C14     4.4123     1.6583    -0.7139	C.3	1	noname	0.0639
20	N3     4.4369     3.1283    -0.8025	N.3	1	noname	-0.2784
21	C15     5.4868     3.8947    -0.4768	C.2	1	noname	0.3383
22	N4     5.3938     5.2219    -0.6071	N.3	1	noname	-0.2910
23	N5     6.6317     3.3786    -0.0260	N.2	1	noname	-0.2910
24	C16     1.5788    -2.5199    -0.8598	C.2	1	noname	0.2403
25	O3     2.5288    -3.0236    -0.2537	O.2	1	noname	-0.2730
26	N6     0.4909    -3.2861    -1.2746	N.3	1	noname	-0.3413
27	C17     0.5218    -4.7301    -1.0209	C.3	1	noname	0.0205
28	C18    -0.8616    -5.2887    -0.7176	C.3	1	noname	-0.0354
29	C19    -1.8860    -4.9709    -1.8050	C.3	1	noname	-0.0499
30	C20    -1.4297    -3.8648    -2.7499	C.3	1	noname	-0.0354
31	C21    -0.6637    -2.7730    -2.0142	C.3	1	noname	0.0205
32	H1    -5.4658    -1.0168    -0.5584	H	1	noname	0.0234
33	H2    -5.6230    -2.7341    -0.1681	H	1	noname	0.0234
34	H3    -4.0376    -2.0682    -0.5845	H	1	noname	0.0234
35	H4    -5.7298    -1.4443     1.8804	H	1	noname	0.0321
36	H5    -4.5124     0.5757     1.0790	H	1	noname	0.0493
37	H6    -3.9553     0.0421     2.6667	H	1	noname	0.0493
38	H7    -2.1304     0.5533     1.1665	H	1	noname	0.1601
39	H8    -4.2789    -3.6446     1.7046	H	1	noname	0.0320
40	H9    -4.3495    -2.6945     3.1884	H	1	noname	0.0320
41	H10    -2.2952    -4.4042     3.2093	H	1	noname	0.0626
42	H11     0.1093    -4.2798     3.3792	H	1	noname	0.0623
43	H12     1.3069    -2.3991     2.4537	H	1	noname	0.0638
44	H13    -0.4099    -0.2860    -0.9388	H	1	noname	0.1418
45	H14     1.4098    -0.9268    -2.2817	H	1	noname	0.0579
46	H15     3.3568    -0.6582     0.0204	H	1	noname	0.0289
47	H16     3.6966    -0.8719    -1.6660	H	1	noname	0.0289
48	H17     2.8789     1.3806    -2.2142	H	1	noname	0.0300
49	H18     2.2810     1.6337    -0.5812	H	1	noname	0.0300
50	H19     4.6019     1.3840     0.3296	H	1	noname	0.0664
51	H20     5.2030     1.2538    -1.3553	H	1	noname	0.0664
52	H21     3.5916     3.5972    -1.1055	H	1	noname	0.2596
53	H22     6.1686     5.8365    -0.3926	H	1	noname	0.2563
54	H23     4.5439     5.6555    -0.9427	H	1	noname	0.2563
55	H24     7.4241     3.9608     0.2070	H	1	noname	0.2563
56	H25     6.7240     2.3846     0.1411	H	1	noname	0.2563
57	H26     0.9355    -5.2049    -1.9186	H	1	noname	0.0494
58	H27     1.2019    -4.9645    -0.1956	H	1	noname	0.0494
59	H28    -0.8073    -6.3721    -0.5657	H	1	noname	0.0285
60	H29    -1.2123    -4.8633     0.2275	H	1	noname	0.0285
61	H30    -2.1058    -5.8717    -2.3895	H	1	noname	0.0268
62	H31    -2.8281    -4.6802    -1.3249	H	1	noname	0.0268
63	H32    -0.7853    -4.2978    -3.5257	H	1	noname	0.0285
64	H33    -2.2960    -3.4341    -3.2639	H	1	noname	0.0285
65	H34    -0.3385    -2.0208    -2.7366	H	1	noname	0.0494
66	H35    -1.3218    -2.2858    -1.2879	H	1	noname	0.0494
@<TRIPOS>BOND
1	2	1	1
2	2	3	1
3	3	4	1
4	4	5	1
5	5	6	2
6	6	7	1
7	2	7	1
8	6	8	1
9	8	9	2
10	9	10	1
11	10	11	2
12	5	11	1
13	11	12	1
14	12	13	2
15	12	14	2
16	12	15	1
17	16	15	1
18	16	17	1
19	17	18	1
20	18	19	1
21	19	20	1
22	20	21	1
23	21	22	1
24	21	23	2
25	16	24	1
26	24	25	2
27	24	26	1
28	26	27	1
29	27	28	1
30	28	29	1
31	29	30	1
32	30	31	1
33	26	31	1
34	1	32	1
35	1	33	1
36	1	34	1
37	2	35	1
38	3	36	1
39	3	37	1
40	4	38	1
41	7	39	1
42	7	40	1
43	8	41	1
44	9	42	1
45	10	43	1
46	15	44	1
47	16	45	1
48	17	46	1
49	17	47	1
50	18	48	1
51	18	49	1
52	19	50	1
53	19	51	1
54	20	52	1
55	22	53	1
56	22	54	1
57	23	55	1
58	23	56	1
59	27	57	1
60	27	58	1
61	28	59	1
62	28	60	1
63	29	61	1
64	29	62	1
65	30	63	1
66	30	64	1
67	31	65	1
68	31	66	1
@<TRIPOS>SUBSTRUCTURE
1	noname	1
@<TRIPOS>MOLECULE
KXNPVXPOPUZYGB-UOVPBQLFSA-N_1_1
71 73 1
SMALL
GASTEIGER
@<TRIPOS>ATOM
1	C1    10.1730    -1.8769     4.3473	C.3	1	noname	-0.0624
2	C2     9.0685    -0.8829     4.7054	C.3	1	noname	-0.0403
3	C3     9.5400     0.5583     4.5497	C.3	1	noname	-0.0327
4	C4     9.6122     0.9854     3.0889	C.3	1	noname	0.0215
5	N1     8.3414     0.8514     2.3682	N.3	1	noname	-0.3330
6	C5     7.6745    -0.4687     2.5215	C.3	1	noname	0.0717
7	C6     7.7716    -1.1043     3.9217	C.3	1	noname	-0.0245
8	C7     8.0403    -1.4845     1.3938	C.2	1	noname	0.0641
9	O1     7.2612    -1.3990     0.3942	O.3	1	noname	-0.5479
10	O2     9.0524    -2.2091     1.5584	O.2	1	noname	-0.5479
11	C8     8.2536     1.6150     1.1981	C.2	1	noname	0.2408
12	O3     9.1663     2.4359     0.9642	O.2	1	noname	-0.2730
13	C9     7.0936     1.5795     0.1244	C.3	1	noname	0.1010
14	C10     6.7217     3.0590    -0.1371	C.3	1	noname	-0.0247
15	C11     6.6678     3.4192    -1.6226	C.3	1	noname	-0.0203
16	C12     6.3925     4.9091    -1.7909	C.3	1	noname	0.0639
17	N2     5.2754     5.1617    -2.7185	N.3	1	noname	-0.2784
18	C13     4.5678     6.2992    -2.7571	C.2	1	noname	0.3383
19	N3     4.7774     7.2994    -1.8960	N.3	1	noname	-0.2910
20	N4     3.6208     6.4611    -3.6850	N.2	1	noname	-0.2910
21	N5     5.8455     0.7675     0.3865	N.3	1	noname	-0.1986
22	S1     4.7716     0.4069    -0.9018	S	1	noname	0.2429
23	O4     3.9665    -0.7067    -0.4408	O.2	1	noname	-0.2070
24	O5     5.5853     0.2818    -2.0982	O.2	1	noname	-0.2070
25	C14     3.6541     1.7339    -1.1579	C.2	1	noname	0.1054
26	C15     3.3201     2.5285    -0.1164	C.2	1	noname	-0.0400
27	C16     2.4678     3.5568    -0.3019	C.2	1	noname	-0.0605
28	C17     1.9257     3.7736    -1.5159	C.2	1	noname	-0.0569
29	C18     2.2255     2.9660    -2.5588	C.2	1	noname	-0.0231
30	C19     1.5535     3.1516    -3.8983	C.3	1	noname	-0.0215
31	C20     2.4517     2.8391    -5.1108	C.3	1	noname	-0.0227
32	C21     1.5804     2.4763    -6.3143	C.3	1	noname	-0.0605
33	C22     3.5176     1.7648    -4.8383	C.3	1	noname	0.0176
34	N6     3.3444     1.0723    -3.5743	N.3	1	noname	-0.3834
35	C23     3.1014     1.9454    -2.3802	C.2	1	noname	0.0576
36	H1     9.7810    -2.8959     4.2720	H	1	noname	0.0233
37	H2    10.9452    -1.8776     5.1244	H	1	noname	0.0233
38	H3    10.6696    -1.6273     3.4074	H	1	noname	0.0233
39	H4     8.8391    -1.0541     5.7668	H	1	noname	0.0301
40	H5    10.5235     0.6830     5.0202	H	1	noname	0.0287
41	H6     8.8506     1.2229     5.0859	H	1	noname	0.0287
42	H7     9.9401     2.0313     3.0719	H	1	noname	0.0494
43	H8    10.3681     0.4127     2.5394	H	1	noname	0.0494
44	H9     6.6045    -0.2637     2.4212	H	1	noname	0.0595
45	H10     6.9629    -0.6678     4.5263	H	1	noname	0.0294
46	H11     7.5416    -2.1771     3.8704	H	1	noname	0.0294
47	H12     7.5879     1.1484    -0.7569	H	1	noname	0.0579
48	H13     7.4456     3.7466     0.3176	H	1	noname	0.0289
49	H14     5.7816     3.3187     0.3564	H	1	noname	0.0289
50	H15     7.6251     3.1756    -2.0970	H	1	noname	0.0300
51	H16     5.9090     2.8352    -2.1382	H	1	noname	0.0300
52	H17     7.2821     5.4019    -2.1939	H	1	noname	0.0664
53	H18     6.1541     5.3543    -0.8217	H	1	noname	0.0664
54	H19     4.9525     4.3933    -3.2978	H	1	noname	0.2596
55	H20     4.2358     8.1523    -1.9139	H	1	noname	0.2563
56	H21     5.4795     7.2259    -1.1733	H	1	noname	0.2563
57	H22     3.4843     5.7794    -4.4166	H	1	noname	0.2563
58	H23     3.0514     7.2959    -3.7113	H	1	noname	0.2563
59	H24     6.2170    -0.2092     0.5114	H	1	noname	0.1418
60	H25     3.7294     2.3438     0.8764	H	1	noname	0.0638
61	H26     2.1972     4.1928     0.5385	H	1	noname	0.0623
62	H27     1.2071     4.5803    -1.6344	H	1	noname	0.0626
63	H28     1.1907     4.1825    -4.0051	H	1	noname	0.0320
64	H29     0.6578     2.5142    -3.9094	H	1	noname	0.0320
65	H30     2.9919     3.7593    -5.3743	H	1	noname	0.0321
66	H31     2.1939     2.2919    -7.2024	H	1	noname	0.0234
67	H32     0.8884     3.2925    -6.5474	H	1	noname	0.0234
68	H33     0.9875     1.5773    -6.1171	H	1	noname	0.0234
69	H34     4.5052     2.2448    -4.8345	H	1	noname	0.0493
70	H35     3.5490     1.0312    -5.6529	H	1	noname	0.0493
71	H36     4.0883     0.3763    -3.4267	H	1	noname	0.1601
@<TRIPOS>BOND
1	2	1	1
2	2	3	1
3	3	4	1
4	4	5	1
5	6	5	1
6	6	7	1
7	2	7	1
8	6	8	1
9	8	9	1
10	8	10	2
11	5	11	1
12	11	12	2
13	13	11	1
14	13	14	1
15	14	15	1
16	15	16	1
17	16	17	1
18	17	18	1
19	18	19	1
20	18	20	2
21	13	21	1
22	21	22	1
23	22	23	2
24	22	24	2
25	22	25	1
26	25	26	2
27	26	27	1
28	27	28	2
29	28	29	1
30	29	30	1
31	31	30	1
32	31	32	1
33	31	33	1
34	33	34	1
35	34	35	1
36	25	35	1
37	29	35	2
38	1	36	1
39	1	37	1
40	1	38	1
41	2	39	1
42	3	40	1
43	3	41	1
44	4	42	1
45	4	43	1
46	6	44	1
47	7	45	1
48	7	46	1
49	13	47	1
50	14	48	1
51	14	49	1
52	15	50	1
53	15	51	1
54	16	52	1
55	16	53	1
56	17	54	1
57	19	55	1
58	19	56	1
59	20	57	1
60	20	58	1
61	21	59	1
62	26	60	1
63	27	61	1
64	28	62	1
65	30	63	1
66	30	64	1
67	31	65	1
68	32	66	1
69	32	67	1
70	32	68	1
71	33	69	1
72	33	70	1
73	34	71	1
@<TRIPOS>SUBSTRUCTURE
1	noname	1
@<TRIPOS>MOLECULE
QVDZMCVSIVITGR-UHFFFAOYSA-P_1_1
75 80 1
SMALL
GASTEIGER
@<TRIPOS>ATOM
1	O1     7.2282     3.3563     5.4271	O.3	1	noname	-0.5079
2	C1     6.0388     3.3905     4.7255	C.2	1	noname	0.1165
3	C2     5.5291     4.5871     4.3665	C.2	1	noname	-0.0195
4	C3     4.3633     4.6766     3.6902	C.2	1	noname	-0.0495
5	C4     3.6946     3.5470     3.3700	C.2	1	noname	-0.0031
6	C5     2.5151     3.4632     2.7030	C.2	1	noname	-0.0171
7	C6     1.7137     4.6500     2.1826	C.3	1	noname	-0.0005
8	C7     1.6364     4.7183     0.6629	C.2	1	noname	-0.0424
9	C8     0.4426     4.7247     0.0303	C.2	1	noname	-0.0581
10	C9     0.3732     4.7219    -1.3131	C.2	1	noname	-0.0520
11	C10     1.4977     4.7177    -2.0714	C.2	1	noname	0.0204
12	C11     1.3628     4.6354    -3.5787	C.3	1	noname	0.1039
13	N1     1.9365     3.3559    -4.1476	N.4	1	noname	-0.3311
14	C12     1.9026     3.2508    -5.6564	C.3	1	noname	0.0775
15	C13     1.3257     1.8718    -5.9441	C.3	1	noname	0.0018
16	C14     1.5856     1.0734    -4.6813	C.3	1	noname	0.0018
17	C15     1.3542     2.0883    -3.5834	C.3	1	noname	0.0775
18	C16     2.7038     4.7694    -1.4405	C.2	1	noname	0.0266
19	Br1     4.3384     4.8093    -2.3812	Br	1	noname	-0.0503
20	C17     2.7589     4.7624    -0.0899	C.2	1	noname	-0.0439
21	C18     2.1201     2.1709     2.5479	C.2	1	noname	0.0390
22	S1     3.2387     1.0033     3.2305	S.3	1	noname	-0.1348
23	C19     4.2133     2.3469     3.7251	C.2	1	noname	0.0389
24	C20     5.3766     2.2583     4.3992	C.2	1	noname	-0.0023
25	C21     0.9315     1.7046     1.8455	C.2	1	noname	-0.0078
26	C22     1.0519     1.0262     0.6806	C.2	1	noname	-0.0499
27	C23    -0.0418     0.6428    -0.0089	C.2	1	noname	-0.0193
28	C24    -1.2878     0.9423     0.4369	C.2	1	noname	0.1192
29	O2    -2.4662     0.6256    -0.2230	O.3	1	noname	-0.4877
30	C25    -2.3866    -0.2602    -1.3375	C.3	1	noname	0.1370
31	C26    -3.7725    -0.4185    -1.9731	C.3	1	noname	0.1117
32	N2    -4.7521    -1.1244    -1.0640	N.4	1	noname	-0.3321
33	C27    -6.0213    -1.5677    -1.7772	C.3	1	noname	0.0774
34	C28    -7.1665    -1.0872    -0.9056	C.3	1	noname	0.0018
35	C29    -6.5579    -0.8684     0.4621	C.3	1	noname	0.0018
36	C30    -5.1843    -0.3230     0.1495	C.3	1	noname	0.0774
37	C31    -1.4024     1.6005     1.6113	C.2	1	noname	-0.0193
38	C32    -0.3109     1.9728     2.3112	C.2	1	noname	-0.0499
39	H1     7.4603     2.4630     5.7324	H	1	noname	0.2931
40	H2     6.0689     5.4923     4.6339	H	1	noname	0.0662
41	H3     4.0100     5.6704     3.4362	H	1	noname	0.0631
42	H4     0.7064     4.6051     2.6191	H	1	noname	0.0366
43	H5     2.1109     5.6059     2.5394	H	1	noname	0.0366
44	H6    -0.4801     4.7131     0.6061	H	1	noname	0.0626
45	H7    -0.6155     4.7159    -1.7666	H	1	noname	0.0628
46	H8     1.8733     5.4709    -4.0700	H	1	noname	0.0979
47	H9     0.3118     4.6649    -3.8954	H	1	noname	0.0979
48	H10     2.9332     3.3681    -3.8825	H	1	noname	0.3479
49	H11     1.2863     4.0530    -6.0741	H	1	noname	0.0924
50	H12     2.9358     3.3458    -6.0011	H	1	noname	0.0924
51	H13     0.2478     1.9484    -6.1302	H	1	noname	0.0327
52	H14     1.7832     1.4094    -6.8251	H	1	noname	0.0327
53	H15     2.6202     0.7134    -4.6635	H	1	noname	0.0327
54	H16     0.9229     0.2083    -4.5879	H	1	noname	0.0327
55	H17     1.8717     1.8408    -2.6530	H	1	noname	0.0924
56	H18     0.2847     2.2493    -3.4069	H	1	noname	0.0924
57	H19     3.7270     4.7803     0.4099	H	1	noname	0.0638
58	H20     5.7781     1.2888     4.6800	H	1	noname	0.0677
59	H21     2.0416     0.7903     0.2883	H	1	noname	0.0631
60	H22     0.1325     0.0996    -0.9278	H	1	noname	0.0662
61	H23    -1.7260     0.1689    -2.1001	H	1	noname	0.0767
62	H24    -2.0018    -1.2345    -1.0149	H	1	noname	0.0767
63	H25    -3.6827    -1.0290    -2.8783	H	1	noname	0.0961
64	H26    -4.2089     0.5538    -2.2268	H	1	noname	0.0961
65	H27    -4.3024    -1.9789    -0.7046	H	1	noname	0.3477
66	H28    -6.0538    -1.1215    -2.7772	H	1	noname	0.0923
67	H29    -5.9709    -2.6574    -1.8531	H	1	noname	0.0923
68	H30    -7.5657    -0.1456    -1.3011	H	1	noname	0.0327
69	H31    -7.9876    -1.8089    -0.8821	H	1	noname	0.0327
70	H32    -6.4818    -1.8177     1.0025	H	1	noname	0.0327
71	H33    -7.1422    -0.1744     1.0703	H	1	noname	0.0327
72	H34    -4.4637    -0.4875     0.9532	H	1	noname	0.0923
73	H35    -5.2262     0.7313    -0.1395	H	1	noname	0.0923
74	H36    -2.3861     1.8420     2.0059	H	1	noname	0.0662
75	H37    -0.4410     2.5076     3.2517	H	1	noname	0.0631
@<TRIPOS>BOND
1	1	2	1
2	2	3	2
3	3	4	1
4	4	5	2
5	5	6	1
6	6	7	1
7	7	8	1
8	8	9	2
9	9	10	1
10	10	11	2
11	11	12	1
12	12	13	1
13	13	14	1
14	14	15	1
15	15	16	1
16	16	17	1
17	13	17	1
18	11	18	1
19	18	19	1
20	18	20	2
21	8	20	1
22	6	21	2
23	21	22	1
24	22	23	1
25	5	23	1
26	23	24	2
27	2	24	1
28	21	25	1
29	25	26	2
30	26	27	1
31	27	28	2
32	28	29	1
33	29	30	1
34	30	31	1
35	31	32	1
36	32	33	1
37	33	34	1
38	34	35	1
39	35	36	1
40	32	36	1
41	28	37	1
42	37	38	2
43	25	38	1
44	1	39	1
45	3	40	1
46	4	41	1
47	7	42	1
48	7	43	1
49	9	44	1
50	10	45	1
51	12	46	1
52	12	47	1
53	13	48	1
54	14	49	1
55	14	50	1
56	15	51	1
57	15	52	1
58	16	53	1
59	16	54	1
60	17	55	1
61	17	56	1
62	20	57	1
63	24	58	1
64	26	59	1
65	27	60	1
66	30	61	1
67	30	62	1
68	31	63	1
69	31	64	1
70	32	65	1
71	33	66	1
72	33	67	1
73	34	68	1
74	34	69	1
75	35	70	1
76	35	71	1
77	36	72	1
78	36	73	1
79	37	74	1
80	38	75	1
@<TRIPOS>SUBSTRUCTURE
1	noname	1
@<TRIPOS>MOLECULE
QVDZMCVSIVITGR-UHFFFAOYSA-P_2_1
74 79 1
SMALL
GASTEIGER
@<TRIPOS>ATOM
1	O1     7.7492     1.4873     6.4979	O.3	1	noname	-0.5079
2	C1     6.4592     1.2086     6.0953	C.2	1	noname	0.1165
3	C2     5.4905     1.0962     7.0279	C.2	1	noname	-0.0195
4	C3     4.2145     0.8156     6.6804	C.2	1	noname	-0.0495
5	C4     3.9002     0.6568     5.3764	C.2	1	noname	-0.0031
6	C5     2.6750     0.4012     4.8515	C.2	1	noname	-0.0171
7	C6     1.3857     0.1983     5.6358	C.3	1	noname	-0.0005
8	C7     0.3312     1.2810     5.4447	C.2	1	noname	-0.0424
9	C8    -0.8708     0.9780     4.9054	C.2	1	noname	-0.0583
10	C9    -1.8059     1.9274     4.7236	C.2	1	noname	-0.0563
11	C10    -1.5952     3.2157     5.0897	C.2	1	noname	-0.0197
12	C11    -2.6889     4.2771     4.8967	C.3	1	noname	0.0244
13	N1    -4.0515     3.7918     4.5624	N.3	1	noname	-0.2990
14	C12    -4.9296     4.9135     4.1808	C.3	1	noname	-0.0015
15	C13    -6.3447     4.4523     4.5233	C.3	1	noname	-0.0392
16	C14    -6.1638     3.1378     5.2645	C.3	1	noname	-0.0392
17	C15    -4.7205     3.1905     5.7299	C.3	1	noname	-0.0015
18	C16    -0.3858     3.5261     5.6433	C.2	1	noname	0.0223
19	Br1     0.0702     5.2793     6.1925	Br	1	noname	-0.0505
20	C17     0.5541     2.5632     5.8104	C.2	1	noname	-0.0441
21	C18     2.7202     0.3397     3.4927	C.2	1	noname	0.0390
22	S1     4.3238     0.5619     2.8229	S.3	1	noname	-0.1348
23	C19     4.8772     0.7786     4.4468	C.2	1	noname	0.0389
24	C20     6.1480     1.0506     4.7910	C.2	1	noname	-0.0023
25	C21     1.5842     0.2304     2.5905	C.2	1	noname	-0.0078
26	C22     1.1495     1.3474     1.9632	C.2	1	noname	-0.0499
27	C23     0.0428     1.3230     1.1978	C.2	1	noname	-0.0193
28	C24    -0.6704     0.1821     1.0436	C.2	1	noname	0.1192
29	O2    -1.8416     0.0777     0.3091	O.3	1	noname	-0.4877
30	C25    -2.1961     1.1885    -0.5201	C.3	1	noname	0.1370
31	C26    -3.5811     0.9138    -1.1020	C.3	1	noname	0.1117
32	N2    -4.5807     0.6544     0.0074	N.4	1	noname	-0.3321
33	C27    -5.9219     0.1474    -0.4800	C.3	1	noname	0.0774
34	C28    -6.9240     1.1763     0.0090	C.3	1	noname	0.0018
35	C29    -6.3059     1.6988     1.2898	C.3	1	noname	0.0018
36	C30    -4.8413     1.8342     0.9264	C.3	1	noname	0.0774
37	C31    -0.2202    -0.9384     1.6510	C.2	1	noname	-0.0193
38	C32     0.8953    -0.9213     2.4128	C.2	1	noname	-0.0499
39	H1     8.3922     1.4170     5.7717	H	1	noname	0.2931
40	H2     5.7465     1.2345     8.0756	H	1	noname	0.0662
41	H3     3.4775     0.7364     7.4733	H	1	noname	0.0631
42	H4     0.9740    -0.7791     5.3513	H	1	noname	0.0366
43	H5     1.5735     0.0846     6.7093	H	1	noname	0.0366
44	H6    -1.0972    -0.0380     4.5951	H	1	noname	0.0626
45	H7    -2.7468     1.6321     4.2722	H	1	noname	0.0627
46	H8    -2.3499     4.9129     4.0664	H	1	noname	0.0482
47	H9    -2.7585     4.9099     5.7921	H	1	noname	0.0482
48	H10    -4.7053     5.8272     4.7449	H	1	noname	0.0431
49	H11    -4.8309     5.1384     3.1135	H	1	noname	0.0431
50	H12    -6.8376     5.1890     5.1679	H	1	noname	0.0280
51	H13    -6.9646     4.3229     3.6319	H	1	noname	0.0280
52	H14    -6.3128     2.2964     4.5767	H	1	noname	0.0280
53	H15    -6.8700     3.0265     6.0927	H	1	noname	0.0280
54	H16    -4.3485     2.1897     5.9666	H	1	noname	0.0431
55	H17    -4.6389     3.8254     6.6210	H	1	noname	0.0431
56	H18     1.5157     2.8253     6.2481	H	1	noname	0.0638
57	H19     6.9106     1.1489     4.0260	H	1	noname	0.0677
58	H20     1.6785     2.2914     2.0916	H	1	noname	0.0631
59	H21    -0.2520     2.2576     0.7379	H	1	noname	0.0662
60	H22    -2.2316     2.1182     0.0568	H	1	noname	0.0767
61	H23    -1.4731     1.2893    -1.3362	H	1	noname	0.0767
62	H24    -3.5560     0.0004    -1.7045	H	1	noname	0.0961
63	H25    -3.9499     1.7469    -1.7075	H	1	noname	0.0961
64	H26    -4.1561    -0.0885     0.5861	H	1	noname	0.3477
65	H27    -5.9130     0.0508    -1.5697	H	1	noname	0.0923
66	H28    -6.0795    -0.8310    -0.0138	H	1	noname	0.0923
67	H29    -7.0192     1.9865    -0.7246	H	1	noname	0.0327
68	H30    -7.9167     0.7444     0.1653	H	1	noname	0.0327
69	H31    -6.4386     0.9740     2.1023	H	1	noname	0.0327
70	H32    -6.7423     2.6514     1.6042	H	1	noname	0.0327
71	H33    -4.1709     1.7615     1.7875	H	1	noname	0.0923
72	H34    -4.6569     2.7534     0.3594	H	1	noname	0.0923
73	H35    -0.7627    -1.8728     1.5309	H	1	noname	0.0662
74	H36     1.2178    -1.8409     2.8985	H	1	noname	0.0631
@<TRIPOS>BOND
1	1	2	1
2	2	3	2
3	3	4	1
4	4	5	2
5	5	6	1
6	6	7	1
7	7	8	1
8	8	9	2
9	9	10	1
10	10	11	2
11	11	12	1
12	12	13	1
13	13	14	1
14	14	15	1
15	15	16	1
16	16	17	1
17	13	17	1
18	11	18	1
19	18	19	1
20	18	20	2
21	8	20	1
22	6	21	2
23	21	22	1
24	22	23	1
25	5	23	1
26	23	24	2
27	2	24	1
28	21	25	1
29	25	26	2
30	26	27	1
31	27	28	2
32	28	29	1
33	29	30	1
34	30	31	1
35	31	32	1
36	32	33	1
37	33	34	1
38	34	35	1
39	35	36	1
40	32	36	1
41	28	37	1
42	37	38	2
43	25	38	1
44	1	39	1
45	3	40	1
46	4	41	1
47	7	42	1
48	7	43	1
49	9	44	1
50	10	45	1
51	12	46	1
52	12	47	1
53	14	48	1
54	14	49	1
55	15	50	1
56	15	51	1
57	16	52	1
58	16	53	1
59	17	54	1
60	17	55	1
61	20	56	1
62	24	57	1
63	26	58	1
64	27	59	1
65	30	60	1
66	30	61	1
67	31	62	1
68	31	63	1
69	32	64	1
70	33	65	1
71	33	66	1
72	34	67	1
73	34	68	1
74	35	69	1
75	35	70	1
76	36	71	1
77	36	72	1
78	37	73	1
79	38	74	1
@<TRIPOS>SUBSTRUCTURE
1	noname	1
@<TRIPOS>MOLECULE
KEDLOQLGBOISAT-UHFFFAOYSA-P_1_1
78 83 1
SMALL
GASTEIGER
@<TRIPOS>ATOM
1	O1     8.2786     2.5790     4.9039	O.3	1	noname	-0.5079
2	C1     6.9751     2.1364     4.7908	C.2	1	noname	0.1165
3	C2     6.3075     1.8172     5.9190	C.2	1	noname	-0.0195
4	C3     5.0231     1.4056     5.8765	C.2	1	noname	-0.0495
5	C4     4.3907     1.3201     4.6869	C.2	1	noname	-0.0031
6	C5     3.0924     0.9805     4.4836	C.2	1	noname	-0.0170
7	C6     2.0753     0.6654     5.5743	C.3	1	noname	-0.0005
8	C7     1.3101     1.9069     6.0323	C.2	1	noname	-0.0433
9	C8     1.9690     2.9444     6.6006	C.2	1	noname	-0.0550
10	C9     1.3214     4.0519     7.0041	C.2	1	noname	-0.0197
11	C10    -0.0200     4.1577     6.8665	C.2	1	noname	0.1191
12	O2    -0.7661     5.2626     7.2479	O.3	1	noname	-0.4877
13	C11    -0.0457     6.4713     7.5192	C.3	1	noname	0.1370
14	C12    -1.0626     7.5246     7.9562	C.3	1	noname	0.1117
15	N1    -1.8760     7.0231     9.1314	N.4	1	noname	-0.3321
16	C13    -2.9256     8.0025     9.6146	C.3	1	noname	0.0774
17	C14    -2.7521     8.0484    11.1239	C.3	1	noname	0.0018
18	C15    -2.0836     6.7336    11.4712	C.3	1	noname	0.0018
19	C16    -1.0944     6.5580    10.3417	C.3	1	noname	0.0774
20	C17    -0.6826     3.1215     6.3073	C.2	1	noname	-0.0197
21	C18    -0.0335     2.0125     5.8921	C.2	1	noname	-0.0550
22	C19     2.7841     0.9717     3.1617	C.2	1	noname	0.0406
23	S1     4.1190     1.4375     2.1180	S.3	1	noname	-0.1347
24	C20     5.0692     1.6180     3.5540	C.2	1	noname	0.0389
25	C21     6.3539     2.0265     3.5932	C.2	1	noname	-0.0023
26	C22     1.5057     0.6137     2.5731	C.2	1	noname	0.0106
27	C23     1.0026    -0.7658     2.5290	C.2	1	noname	-0.0466
28	C24    -0.1944    -1.0646     1.9913	C.2	1	noname	0.0009
29	C25    -0.9571    -0.0771     1.4812	C.2	1	noname	0.2129
30	O3    -2.1753    -0.4078     0.9040	O.3	1	noname	-0.4717
31	C26    -2.6543     0.6111     0.0118	C.3	1	noname	0.1388
32	C27    -4.0153     0.1645    -0.5303	C.3	1	noname	0.1118
33	N2    -4.9473    -0.1691     0.6174	N.4	1	noname	-0.3321
34	C28    -6.2534    -0.8327     0.2192	C.3	1	noname	0.0774
35	C29    -7.3306    -0.0424     0.9485	C.3	1	noname	0.0018
36	C30    -6.6084     0.5807     2.1275	C.3	1	noname	0.0018
37	C31    -5.2859     0.9916     1.5221	C.3	1	noname	0.0774
38	N3    -0.5410     1.2418     1.5322	N.2	1	noname	-0.2214
39	C32     0.6867     1.5598     2.0669	C.2	1	noname	0.0395
40	H1     8.6637     2.8500     4.0544	H	1	noname	0.2931
41	H2     6.8146     1.8979     6.8786	H	1	noname	0.0662
42	H3     4.5370     1.1627     6.8156	H	1	noname	0.0631
43	H4     2.5582     0.2005     6.4428	H	1	noname	0.0366
44	H5     1.3803    -0.1122     5.2314	H	1	noname	0.0366
45	H6     3.0442     2.9114     6.7459	H	1	noname	0.0627
46	H7     1.9299     4.8357     7.4416	H	1	noname	0.0662
47	H8     0.6809     6.3232     8.3271	H	1	noname	0.0767
48	H9     0.4713     6.8101     6.6145	H	1	noname	0.0767
49	H10    -1.7889     7.7017     7.1545	H	1	noname	0.0961
50	H11    -0.5844     8.4658     8.2434	H	1	noname	0.0961
51	H12    -2.3659     6.1872     8.7792	H	1	noname	0.3477
52	H13    -2.7595     8.9796     9.1476	H	1	noname	0.0923
53	H14    -3.8978     7.6000     9.3125	H	1	noname	0.0923
54	H15    -2.0940     8.8830    11.3950	H	1	noname	0.0327
55	H16    -3.7020     8.1906    11.6445	H	1	noname	0.0327
56	H17    -2.8146     5.9166    11.4675	H	1	noname	0.0327
57	H18    -1.5973     6.7561    12.4493	H	1	noname	0.0327
58	H19    -0.7963     5.5168    10.1858	H	1	noname	0.0923
59	H20    -0.2198     7.2075    10.4524	H	1	noname	0.0923
60	H21    -1.7587     3.1821     6.1771	H	1	noname	0.0662
61	H22    -0.6056     1.2036     5.4422	H	1	noname	0.0627
62	H23     6.8738     2.2700     2.6695	H	1	noname	0.0677
63	H24     1.6306    -1.5484     2.9457	H	1	noname	0.0632
64	H25    -0.5285    -2.0968     1.9644	H	1	noname	0.0680
65	H26    -2.7744     1.5615     0.5473	H	1	noname	0.0767
66	H27    -1.9497     0.7504    -0.8167	H	1	noname	0.0767
67	H28    -4.4876     0.9404    -1.1405	H	1	noname	0.0961
68	H29    -3.9074    -0.7585    -1.1105	H	1	noname	0.0961
69	H30    -4.4255    -0.8530     1.1873	H	1	noname	0.3477
70	H31    -6.3682    -0.8011    -0.8683	H	1	noname	0.0923
71	H32    -6.1988    -1.8693     0.5670	H	1	noname	0.0923
72	H33    -7.7269     0.7439     0.2932	H	1	noname	0.0327
73	H34    -8.1698    -0.6708     1.2589	H	1	noname	0.0327
74	H35    -6.4521    -0.1620     2.9193	H	1	noname	0.0327
75	H36    -7.1505     1.4299     2.5511	H	1	noname	0.0327
76	H37    -4.4848     1.1100     2.2574	H	1	noname	0.0923
77	H38    -5.3839     1.8872     0.8995	H	1	noname	0.0923
78	H39     0.9554     2.6104     2.0656	H	1	noname	0.0848
@<TRIPOS>BOND
1	1	2	1
2	2	3	2
3	3	4	1
4	4	5	2
5	5	6	1
6	6	7	1
7	7	8	1
8	8	9	2
9	9	10	1
10	10	11	2
11	11	12	1
12	12	13	1
13	13	14	1
14	14	15	1
15	15	16	1
16	16	17	1
17	17	18	1
18	18	19	1
19	15	19	1
20	11	20	1
21	20	21	2
22	8	21	1
23	6	22	2
24	22	23	1
25	23	24	1
26	5	24	1
27	24	25	2
28	2	25	1
29	22	26	1
30	26	27	2
31	27	28	1
32	28	29	2
33	29	30	1
34	30	31	1
35	31	32	1
36	32	33	1
37	33	34	1
38	34	35	1
39	35	36	1
40	36	37	1
41	33	37	1
42	29	38	1
43	38	39	2
44	26	39	1
45	1	40	1
46	3	41	1
47	4	42	1
48	7	43	1
49	7	44	1
50	9	45	1
51	10	46	1
52	13	47	1
53	13	48	1
54	14	49	1
55	14	50	1
56	15	51	1
57	16	52	1
58	16	53	1
59	17	54	1
60	17	55	1
61	18	56	1
62	18	57	1
63	19	58	1
64	19	59	1
65	20	60	1
66	21	61	1
67	25	62	1
68	27	63	1
69	28	64	1
70	31	65	1
71	31	66	1
72	32	67	1
73	32	68	1
74	33	69	1
75	34	70	1
76	34	71	1
77	35	72	1
78	35	73	1
79	36	74	1
80	36	75	1
81	37	76	1
82	37	77	1
83	39	78	1
@<TRIPOS>SUBSTRUCTURE
1	noname	1
@<TRIPOS>MOLECULE
LZDAMDNKPMSAPV-UHFFFAOYSA-O_1_1
73 78 1
SMALL
GASTEIGER
@<TRIPOS>ATOM
1	C1    -0.3115    -0.0765     0.2178	C.3	1	noname	0.1370
2	C2    -0.3031     1.4539     0.1901	C.3	1	noname	0.1117
3	N1     0.3586     1.9578    -1.0772	N.4	1	noname	-0.3321
4	C3     0.5620     3.4595    -1.1221	C.3	1	noname	0.0774
5	C4    -0.0712     3.8997    -2.4326	C.3	1	noname	0.0018
6	C5     0.0274     2.6742    -3.3178	C.3	1	noname	0.0018
7	C6    -0.3200     1.5528    -2.3648	C.3	1	noname	0.0774
8	O1     1.0331    -0.5296     0.0286	O.3	1	noname	-0.4877
9	C7     1.2263    -1.9030    -0.0116	C.2	1	noname	0.1192
10	C8     0.2572    -2.8059    -0.3007	C.2	1	noname	-0.0193
11	C9     0.5307    -4.1238    -0.3270	C.2	1	noname	-0.0499
12	C10     1.7731    -4.5783    -0.0492	C.2	1	noname	-0.0078
13	C11     2.7425    -3.6826     0.2450	C.2	1	noname	-0.0499
14	C12     2.4699    -2.3610     0.2541	C.2	1	noname	-0.0193
15	C13     2.0310    -6.0046    -0.1039	C.2	1	noname	0.0390
16	S1     1.3704    -7.0309     1.1592	S.3	1	noname	-0.1349
17	C14     1.9593    -8.3760     0.2523	C.2	1	noname	0.0352
18	C15     1.7946    -9.6678     0.5874	C.2	1	noname	-0.0443
19	C16     2.3121   -10.6253    -0.2082	C.2	1	noname	-0.0608
20	C17     2.9848   -10.2823    -1.3263	C.2	1	noname	-0.0616
21	C18     3.1348    -8.9842    -1.6673	C.2	1	noname	-0.0532
22	C19     2.6172    -8.0226    -0.8745	C.2	1	noname	-0.0034
23	C20     2.6676    -6.6870    -1.0894	C.2	1	noname	-0.0171
24	C21     3.2748    -6.0149    -2.3064	C.3	1	noname	-0.0005
25	C22     4.6853    -5.5006    -2.0732	C.2	1	noname	-0.0433
26	C23     5.6736    -6.3042    -1.6139	C.2	1	noname	-0.0550
27	C24     6.9091    -5.8168    -1.3811	C.2	1	noname	-0.0197
28	C25     7.2025    -4.5166    -1.5871	C.2	1	noname	0.1189
29	O2     8.4910    -4.0995    -1.2695	O.3	1	noname	-0.4917
30	C26     8.7218    -2.6867    -1.2162	C.3	1	noname	0.1061
31	C27    10.1286    -2.3954    -0.6744	C.3	1	noname	0.0562
32	N2    10.4534    -0.9949    -0.5769	N.3	1	noname	-0.3509
33	C28    11.7549    -0.4670    -0.2919	C.2	1	noname	0.0036
34	C29    11.6827     0.8691    -0.4214	C.2	1	noname	-0.0445
35	C30    10.4332     1.2341    -0.7751	C.2	1	noname	-0.0445
36	C31     9.6503     0.1479    -0.8894	C.2	1	noname	0.0036
37	C32     6.2153    -3.7148    -2.0589	C.2	1	noname	-0.0197
38	C33     4.9808    -4.1995    -2.3017	C.2	1	noname	-0.0550
39	H1    -0.9631    -0.4360    -0.5854	H	1	noname	0.0767
40	H2    -0.6894    -0.4278     1.1846	H	1	noname	0.0767
41	H3     0.3021     1.8414     1.0165	H	1	noname	0.0961
42	H4    -1.3156     1.8698     0.2313	H	1	noname	0.0961
43	H5     1.2932     1.5155    -1.0867	H	1	noname	0.3477
44	H6     0.0892     3.9246    -0.2510	H	1	noname	0.0923
45	H7     1.6425     3.6321    -1.1027	H	1	noname	0.0923
46	H8    -1.1235     4.1639    -2.2692	H	1	noname	0.0327
47	H9     0.4303     4.7704    -2.8665	H	1	noname	0.0327
48	H10     1.0504     2.5551    -3.6941	H	1	noname	0.0327
49	H11    -0.6535     2.7136    -4.1727	H	1	noname	0.0327
50	H12     0.0637     0.5779    -2.6759	H	1	noname	0.0923
51	H13    -1.3980     1.5069    -2.1774	H	1	noname	0.0923
52	H14    -0.7615    -2.5196    -0.5326	H	1	noname	0.0662
53	H15    -0.2640    -4.8273    -0.5719	H	1	noname	0.0631
54	H16     3.7521    -4.0245     0.4708	H	1	noname	0.0631
55	H17     3.2713    -1.6639     0.4846	H	1	noname	0.0662
56	H18     1.2459    -9.9466     1.4801	H	1	noname	0.0638
57	H19     2.1821   -11.6746     0.0495	H	1	noname	0.0623
58	H20     3.3993   -11.0575    -1.9620	H	1	noname	0.0623
59	H21     3.6782    -8.7476    -2.5757	H	1	noname	0.0630
60	H22     2.6142    -5.1968    -2.6233	H	1	noname	0.0366
61	H23     3.2686    -6.6787    -3.1777	H	1	noname	0.0366
62	H24     5.4900    -7.3568    -1.4148	H	1	noname	0.0627
63	H25     7.6827    -6.4815    -1.0066	H	1	noname	0.0662
64	H26     8.6289    -2.2756    -2.2290	H	1	noname	0.0725
65	H27     7.9790    -2.2273    -0.5526	H	1	noname	0.0725
66	H28    10.8533    -2.9008    -1.3257	H	1	noname	0.0533
67	H29    10.2308    -2.8704     0.3097	H	1	noname	0.0533
68	H30    12.6345    -1.0398    -0.0315	H	1	noname	0.0818
69	H31    12.5084     1.5505    -0.2742	H	1	noname	0.0639
70	H32    10.1076     2.2476    -0.9521	H	1	noname	0.0639
71	H33     8.6074     0.1518    -1.1726	H	1	noname	0.0818
72	H34     6.3852    -2.6631    -2.2517	H	1	noname	0.0662
73	H35     4.2121    -3.5216    -2.6659	H	1	noname	0.0627
@<TRIPOS>BOND
1	1	2	1
2	2	3	1
3	3	4	1
4	4	5	1
5	5	6	1
6	6	7	1
7	3	7	1
8	1	8	1
9	8	9	1
10	9	10	2
11	10	11	1
12	11	12	2
13	12	13	1
14	13	14	2
15	9	14	1
16	12	15	1
17	15	16	1
18	16	17	1
19	17	18	2
20	18	19	1
21	19	20	2
22	20	21	1
23	21	22	2
24	17	22	1
25	22	23	1
26	15	23	2
27	23	24	1
28	24	25	1
29	25	26	2
30	26	27	1
31	27	28	2
32	28	29	1
33	29	30	1
34	30	31	1
35	31	32	1
36	32	33	1
37	33	34	2
38	34	35	1
39	35	36	2
40	32	36	1
41	28	37	1
42	37	38	2
43	25	38	1
44	1	39	1
45	1	40	1
46	2	41	1
47	2	42	1
48	3	43	1
49	4	44	1
50	4	45	1
51	5	46	1
52	5	47	1
53	6	48	1
54	6	49	1
55	7	50	1
56	7	51	1
57	10	52	1
58	11	53	1
59	13	54	1
60	14	55	1
61	18	56	1
62	19	57	1
63	20	58	1
64	21	59	1
65	24	60	1
66	24	61	1
67	26	62	1
68	27	63	1
69	30	64	1
70	30	65	1
71	31	66	1
72	31	67	1
73	33	68	1
74	34	69	1
75	35	70	1
76	36	71	1
77	37	72	1
78	38	73	1
@<TRIPOS>SUBSTRUCTURE
1	noname	1
@<TRIPOS>MOLECULE
ZDOUXHNKEWMVDZ-UHFFFAOYSA-O_1_1
71 76 1
SMALL
GASTEIGER
@<TRIPOS>ATOM
1	O1    -6.9968     4.9834    -1.2010	O.2	1	noname	-0.2885
2	C1    -6.5824     5.6586    -0.2617	C.2	1	noname	0.1962
3	C2    -5.2500     6.3178    -0.3136	C.2	1	noname	0.0491
4	C3    -4.0989     5.6083    -0.2814	C.2	1	noname	0.0467
5	S1    -2.6750     6.6544    -0.3160	S.3	1	noname	-0.1344
6	C4    -3.7569     7.9978    -0.4848	C.2	1	noname	0.0357
7	C5    -3.3848     9.2795    -0.6548	C.2	1	noname	-0.0443
8	C6    -4.3323    10.2255    -0.8228	C.2	1	noname	-0.0608
9	C7    -5.6388     9.8866    -0.8134	C.2	1	noname	-0.0615
10	C8    -6.0125     8.5999    -0.6258	C.2	1	noname	-0.0528
11	C9    -5.0641     7.6490    -0.4612	C.2	1	noname	0.0043
12	C10    -3.9038     4.1633    -0.3612	C.2	1	noname	-0.0073
13	C11    -4.3059     3.4967    -1.4684	C.2	1	noname	-0.0499
14	C12    -4.0629     2.1809    -1.6173	C.2	1	noname	-0.0193
15	C13    -3.3925     1.4816    -0.6705	C.2	1	noname	0.1189
16	O2    -3.0476     0.1368    -0.7820	O.3	1	noname	-0.4917
17	C14    -3.3727    -0.5098    -2.0249	C.3	1	noname	0.1061
18	C15    -2.7025    -1.8859    -2.1036	C.3	1	noname	0.0562
19	N1    -3.0320    -2.6117    -3.3191	N.3	1	noname	-0.3509
20	C16    -2.7213    -4.0437    -3.4504	C.2	1	noname	0.0036
21	C17    -2.4458    -4.2984    -4.7405	C.2	1	noname	-0.0445
22	C18    -2.4511    -3.1590    -5.4585	C.2	1	noname	-0.0445
23	C19    -2.7284    -2.1071    -4.6698	C.2	1	noname	0.0036
24	C20    -3.0115     2.1425     0.4471	C.2	1	noname	-0.0193
25	C21    -3.2613     3.4626     0.6034	C.2	1	noname	-0.0499
26	C22    -7.4297     5.9165     0.9522	C.2	1	noname	0.0412
27	C23    -6.9788     6.6143     2.1615	C.2	1	noname	-0.0441
28	C24    -7.8541     6.9422     3.1338	C.2	1	noname	0.0010
29	C25    -9.1433     6.5629     3.0226	C.2	1	noname	0.2129
30	O3   -10.0448     6.9552     3.9940	O.3	1	noname	-0.4717
31	C26   -10.7776     5.8473     4.5330	C.3	1	noname	0.1388
32	C27   -12.0221     6.4233     5.2099	C.3	1	noname	0.1118
33	N2   -12.7651     7.3140     4.2350	N.4	1	noname	-0.3321
34	C28   -13.7755     8.2444     4.8717	C.3	1	noname	0.0774
35	C29   -15.0818     7.9374     4.1648	C.3	1	noname	0.0018
36	C30   -14.6439     7.4772     2.7885	C.3	1	noname	0.0018
37	C31   -13.4619     6.5852     3.1062	C.3	1	noname	0.0774
38	N3    -9.5899     5.8328     1.9346	N.2	1	noname	-0.2214
39	C32    -8.7214     5.5273     0.9042	C.2	1	noname	0.0420
40	H1    -2.3371     9.5622    -0.6740	H	1	noname	0.0638
41	H2    -4.0428    11.2623    -0.9831	H	1	noname	0.0623
42	H3    -6.3894    10.6592    -0.9723	H	1	noname	0.0623
43	H4    -7.0730     8.3610    -0.6438	H	1	noname	0.0630
44	H5    -4.8189     4.0116    -2.2784	H	1	noname	0.0631
45	H6    -4.4123     1.7197    -2.5349	H	1	noname	0.0662
46	H7    -4.4621    -0.6209    -2.0829	H	1	noname	0.0725
47	H8    -3.0090     0.0983    -2.8610	H	1	noname	0.0725
48	H9    -3.0241    -2.4673    -1.2312	H	1	noname	0.0533
49	H10    -1.6169    -1.7649    -2.0021	H	1	noname	0.0533
50	H11    -2.7175    -4.7602    -2.6403	H	1	noname	0.0818
51	H12    -2.2051    -5.2735    -5.1390	H	1	noname	0.0639
52	H13    -2.2169    -3.0939    -6.5121	H	1	noname	0.0639
53	H14    -2.7336    -1.0708    -4.9763	H	1	noname	0.0818
54	H15    -2.4772     1.6064     1.2284	H	1	noname	0.0662
55	H16    -2.9157     3.9632     1.5044	H	1	noname	0.0631
56	H17    -5.9327     6.8915     2.2673	H	1	noname	0.0633
57	H18    -7.5236     7.5076     4.0041	H	1	noname	0.0680
58	H19   -11.0855     5.1298     3.7654	H	1	noname	0.0767
59	H20   -10.1548     5.3302     5.2715	H	1	noname	0.0767
60	H21   -11.7200     7.0710     6.0393	H	1	noname	0.0961
61	H22   -12.7056     5.6499     5.5747	H	1	noname	0.0961
62	H23   -12.0307     7.9007     3.8053	H	1	noname	0.3477
63	H24   -13.8260     8.0613     5.9487	H	1	noname	0.0923
64	H25   -13.4334     9.2653     4.6716	H	1	noname	0.0923
65	H26   -15.6054     7.1280     4.6883	H	1	noname	0.0327
66	H27   -15.7486     8.8034     4.1326	H	1	noname	0.0327
67	H28   -14.3274     8.3330     2.1790	H	1	noname	0.0327
68	H29   -15.4336     6.9426     2.2531	H	1	noname	0.0327
69	H30   -12.7625     6.4715     2.2745	H	1	noname	0.0923
70	H31   -13.7865     5.6105     3.4857	H	1	noname	0.0923
71	H32    -9.1468     4.9971     0.0521	H	1	noname	0.0849
@<TRIPOS>BOND
1	1	2	2
2	2	3	1
3	3	4	2
4	4	5	1
5	5	6	1
6	6	7	2
7	7	8	1
8	8	9	2
9	9	10	1
10	10	11	2
11	3	11	1
12	6	11	1
13	4	12	1
14	12	13	2
15	13	14	1
16	14	15	2
17	15	16	1
18	16	17	1
19	17	18	1
20	18	19	1
21	19	20	1
22	20	21	2
23	21	22	1
24	22	23	2
25	19	23	1
26	15	24	1
27	24	25	2
28	12	25	1
29	2	26	1
30	26	27	2
31	27	28	1
32	28	29	2
33	29	30	1
34	30	31	1
35	31	32	1
36	32	33	1
37	33	34	1
38	34	35	1
39	35	36	1
40	36	37	1
41	33	37	1
42	29	38	1
43	38	39	2
44	26	39	1
45	7	40	1
46	8	41	1
47	9	42	1
48	10	43	1
49	13	44	1
50	14	45	1
51	17	46	1
52	17	47	1
53	18	48	1
54	18	49	1
55	20	50	1
56	21	51	1
57	22	52	1
58	23	53	1
59	24	54	1
60	25	55	1
61	27	56	1
62	28	57	1
63	31	58	1
64	31	59	1
65	32	60	1
66	32	61	1
67	33	62	1
68	34	63	1
69	34	64	1
70	35	65	1
71	35	66	1
72	36	67	1
73	36	68	1
74	37	69	1
75	37	70	1
76	39	71	1
@<TRIPOS>SUBSTRUCTURE
1	noname	1
@<TRIPOS>MOLECULE
YMFPDXJBQSYZIB-UHFFFAOYSA-N_1_1
19 19 1
SMALL
GASTEIGER
@<TRIPOS>ATOM
1	N1    -2.7537     2.3044    -0.7448	N.4	1	noname	-0.3295
2	C1    -2.0376     1.1430    -0.4407	C.3	1	noname	0.2469
3	N2    -2.7887     0.0344    -0.3683	N.3	1	noname	-0.2680
4	C2    -0.5774     1.1499    -0.2309	C.2	1	noname	0.0366
5	C3     0.1317    -0.0124    -0.1787	C.2	1	noname	-0.0509
6	C4     1.4662    -0.0176     0.0172	C.2	1	noname	-0.0617
7	C5     2.1328     1.1396     0.1608	C.2	1	noname	-0.0622
8	C6     1.4613     2.3019     0.1015	C.2	1	noname	-0.0617
9	C7     0.1264     2.3087    -0.0911	C.2	1	noname	-0.0509
10	H1    -2.8777     2.4038    -1.7579	H	1	noname	0.3462
11	H2    -2.3176     3.1610    -0.3971	H	1	noname	0.3462
12	H3    -3.6831     2.2717    -0.3166	H	1	noname	0.3462
13	H4    -3.7858    -0.0310    -0.5317	H	1	noname	0.1252
14	H5    -2.4014    -0.8556    -0.0678	H	1	noname	0.1252
15	H6    -0.3423    -0.9828    -0.2986	H	1	noname	0.0629
16	H7     2.0132    -0.9575     0.0598	H	1	noname	0.0623
17	H8     3.2086     1.1338     0.3231	H	1	noname	0.0623
18	H9     2.0108     3.2336     0.2140	H	1	noname	0.0623
19	H10    -0.3316     3.2900    -0.1225	H	1	noname	0.0629
@<TRIPOS>BOND
1	1	2	1
2	2	3	1
3	2	4	1
4	4	5	2
5	5	6	1
6	6	7	2
7	7	8	1
8	8	9	2
9	4	9	1
10	1	10	1
11	1	11	1
12	1	12	1
13	3	13	1
14	3	14	1
15	5	15	1
16	6	16	1
17	7	17	1
18	8	18	1
19	9	19	1
@<TRIPOS>SUBSTRUCTURE
1	noname	1
@<TRIPOS>MOLECULE
HSBRFDADFCMARY-MXSMSXNCSA-M_1_1
73 75 1
SMALL
GASTEIGER
@<TRIPOS>ATOM
1	C1    -0.1702     8.8137     0.3515	C.3	1	noname	-0.0624
2	C2     0.2467     7.3842     0.6831	C.3	1	noname	-0.0403
3	C3     1.5423     6.9971    -0.0312	C.3	1	noname	-0.0327
4	C4     1.9362     5.5750     0.3391	C.3	1	noname	0.0215
5	N1     0.8940     4.6057     0.0044	N.3	1	noname	-0.3330
6	C5    -0.4799     4.9407     0.5120	C.3	1	noname	0.0717
7	C6    -0.8670     6.4031     0.3029	C.3	1	noname	-0.0245
8	C7    -0.7100     4.5209     1.9947	C.2	1	noname	0.0641
9	O1    -1.6964     3.7761     2.2458	O.3	1	noname	-0.5479
10	O2     0.2745     4.6442     2.7904	O.2	1	noname	-0.5479
11	C8     1.2700     3.2661     0.1922	C.2	1	noname	0.2408
12	O3     2.0969     2.9292     1.0439	O.2	1	noname	-0.2730
13	C9     0.5066     2.2406    -0.6617	C.3	1	noname	0.1011
14	C10    -0.4943     1.4330     0.1879	C.3	1	noname	-0.0223
15	C11     0.1141     0.5304     1.2788	C.3	1	noname	-0.0013
16	C12    -0.0507     0.9977     2.7280	C.3	1	noname	0.0820
17	N2     0.8924     2.0601     3.1179	N.4	1	noname	-0.2676
18	C13     0.9906     2.4197     4.4494	C.3	1	noname	0.4037
19	N3     0.5007     1.6680     5.4971	N.4	1	noname	-0.2788
20	N4     1.6663     3.5035     4.7357	N.3	1	noname	-0.2149
21	N5     1.3024     1.2749    -1.4474	N.3	1	noname	-0.1986
22	S1     2.9854     1.2128    -1.4890	S	1	noname	0.2429
23	O4     3.2257     0.2162    -2.5144	O.2	1	noname	-0.2070
24	O5     3.3890     0.9273    -0.1231	O.2	1	noname	-0.2070
25	C14     3.5799     2.7498    -2.0620	C.2	1	noname	0.1054
26	C15     2.8978     3.3391    -3.0712	C.2	1	noname	-0.0400
27	C16     3.3289     4.5048    -3.5847	C.2	1	noname	-0.0605
28	C17     4.4443     5.0784    -3.1020	C.2	1	noname	-0.0569
29	C18     5.1444     4.5013    -2.0957	C.2	1	noname	-0.0231
30	C19     6.3955     5.2060    -1.6045	C.3	1	noname	-0.0215
31	C20     7.3117     4.3402    -0.7307	C.3	1	noname	-0.0227
32	C21     8.2324     3.4540    -1.5786	C.3	1	noname	-0.0605
33	C22     6.4457     3.5267     0.2338	C.3	1	noname	0.0176
34	N6     5.4990     2.6973    -0.4891	N.3	1	noname	-0.3834
35	C23     4.7068     3.3229    -1.5681	C.2	1	noname	0.0576
36	H1     0.6051     9.5254     0.6495	H	1	noname	0.0233
37	H2    -0.3559     8.9406    -0.7195	H	1	noname	0.0233
38	H3    -1.0899     9.0758     0.8852	H	1	noname	0.0233
39	H4     0.4137     7.3276     1.7663	H	1	noname	0.0301
40	H5     2.3520     7.6817     0.2448	H	1	noname	0.0287
41	H6     1.4140     7.0714    -1.1179	H	1	noname	0.0287
42	H7     2.8400     5.2929    -0.2104	H	1	noname	0.0494
43	H8     2.1882     5.5049     1.4032	H	1	noname	0.0494
44	H9    -1.1789     4.3382    -0.0817	H	1	noname	0.0595
45	H10    -1.1192     6.5466    -0.7559	H	1	noname	0.0294
46	H11    -1.7752     6.6401     0.8701	H	1	noname	0.0294
47	H12    -0.0628     2.8090    -1.4082	H	1	noname	0.0579
48	H13    -1.0406     0.7754    -0.5054	H	1	noname	0.0290
49	H14    -1.2568     2.0851     0.6157	H	1	noname	0.0290
50	H15    -0.4223    -0.4277     1.2163	H	1	noname	0.0325
51	H16     1.1614     0.2899     1.0784	H	1	noname	0.0325
52	H17     0.1647     0.1373     3.3692	H	1	noname	0.0925
53	H18    -1.0681     1.3362     2.9392	H	1	noname	0.0925
54	H19     1.8139     1.9844     2.6460	H	1	noname	0.3531
55	H20     0.5836     2.9491     2.6756	H	1	noname	0.3531
56	H21     1.0735     0.8416     5.6869	H	1	noname	0.3513
57	H22    -0.4765     1.3889     5.3731	H	1	noname	0.3513
58	H23     0.5084     2.2266     6.3554	H	1	noname	0.3513
59	H24     1.5496     3.9930     5.6176	H	1	noname	0.1315
60	H25     1.5512     4.2328     3.9995	H	1	noname	0.1315
61	H26     0.8911     0.9311    -2.3156	H	1	noname	0.1418
62	H27     2.0060     2.8870    -3.4969	H	1	noname	0.0638
63	H28     2.7869     4.9795    -4.4001	H	1	noname	0.0623
64	H29     4.7829     6.0178    -3.5359	H	1	noname	0.0626
65	H30     6.0705     6.0725    -1.0109	H	1	noname	0.0320
66	H31     6.9708     5.6024    -2.4507	H	1	noname	0.0320
67	H32     7.9542     5.0069    -0.1416	H	1	noname	0.0321
68	H33     7.6744     2.7714    -2.2267	H	1	noname	0.0234
69	H34     8.8710     4.0719    -2.2187	H	1	noname	0.0234
70	H35     8.8868     2.8544    -0.9371	H	1	noname	0.0234
71	H36     5.9059     4.1975     0.9166	H	1	noname	0.0493
72	H37     7.0827     2.8868     0.8576	H	1	noname	0.0493
73	H38     4.9875     2.0350     0.1015	H	1	noname	0.1601
@<TRIPOS>BOND
1	2	1	1
2	2	3	1
3	3	4	1
4	4	5	1
5	6	5	1
6	6	7	1
7	2	7	1
8	6	8	1
9	8	9	1
10	8	10	2
11	5	11	1
12	11	12	2
13	13	11	1
14	13	14	1
15	14	15	1
16	15	16	1
17	16	17	1
18	17	18	1
19	18	19	1
20	18	20	1
21	13	21	1
22	21	22	1
23	22	23	2
24	22	24	2
25	22	25	1
26	25	26	2
27	26	27	1
28	27	28	2
29	28	29	1
30	29	30	1
31	31	30	1
32	31	32	1
33	31	33	1
34	33	34	1
35	34	35	1
36	25	35	1
37	29	35	2
38	1	36	1
39	1	37	1
40	1	38	1
41	2	39	1
42	3	40	1
43	3	41	1
44	4	42	1
45	4	43	1
46	6	44	1
47	7	45	1
48	7	46	1
49	13	47	1
50	14	48	1
51	14	49	1
52	15	50	1
53	15	51	1
54	16	52	1
55	16	53	1
56	17	54	1
57	17	55	1
58	19	56	1
59	19	57	1
60	19	58	1
61	20	59	1
62	20	60	1
63	21	61	1
64	26	62	1
65	27	63	1
66	28	64	1
67	30	65	1
68	30	66	1
69	31	67	1
70	32	68	1
71	32	69	1
72	32	70	1
73	33	71	1
74	33	72	1
75	34	73	1
@<TRIPOS>SUBSTRUCTURE
1	noname	1
@<TRIPOS>MOLECULE
HSBRFDADFCMARY-MXSMSXNCSA-M_2_1
72 74 1
SMALL
GASTEIGER
@<TRIPOS>ATOM
1	C1    -7.0206     1.2690    -3.1157	C.3	1	noname	-0.0624
2	C2    -5.5581     1.0155    -3.4730	C.3	1	noname	-0.0403
3	C3    -5.0107    -0.1468    -2.6511	C.3	1	noname	-0.0327
4	C4    -3.5466    -0.3865    -2.9821	C.3	1	noname	0.0215
5	N1    -2.7107     0.7925    -2.7582	N.3	1	noname	-0.3330
6	C5    -3.1941     2.0586    -3.4056	C.3	1	noname	0.0717
7	C6    -4.7078     2.2665    -3.2279	C.3	1	noname	-0.0245
8	C7    -2.7280     2.2462    -4.8980	C.2	1	noname	0.0641
9	O1    -1.6176     2.8561    -5.0303	O.3	1	noname	-0.5479
10	O2    -3.4669     1.7600    -5.7927	O.2	1	noname	-0.5479
11	C8    -1.3508     0.5239    -2.5537	C.2	1	noname	0.2408
12	O3    -0.9324    -0.6325    -2.4253	O.2	1	noname	-0.2730
13	C9    -0.3438     1.6842    -2.5018	C.3	1	noname	0.1011
14	C10     0.6615     1.4824    -3.6360	C.3	1	noname	-0.0223
15	C11     1.3829     2.7751    -3.9968	C.3	1	noname	-0.0015
16	C12     2.1870     2.5557    -5.2652	C.3	1	noname	0.0783
17	N2     2.6169     3.8863    -5.7787	N.4	1	noname	-0.3080
18	C13     3.5751     3.7877    -6.7591	C.3	1	noname	0.2888
19	N3     4.8206     3.8877    -6.4409	N.3	1	noname	-0.2572
20	N4     3.2278     3.7214    -7.9856	N.3	1	noname	-0.2572
21	N5     0.2891     1.9246    -1.1792	N.3	1	noname	-0.1986
22	S1     1.4098     0.9171    -0.4356	S	1	noname	0.2429
23	O4     1.8138     1.7119     0.7124	O.2	1	noname	-0.2070
24	O5     2.4264     0.6260    -1.4324	O.2	1	noname	-0.2070
25	C14     0.5735    -0.4998     0.1209	C.2	1	noname	0.1054
26	C15    -0.4749    -0.2876     0.9513	C.2	1	noname	-0.0400
27	C16    -1.2065    -1.3306     1.3853	C.2	1	noname	-0.0605
28	C17    -0.9012    -2.5789     0.9861	C.2	1	noname	-0.0569
29	C18     0.1490    -2.8088     0.1609	C.2	1	noname	-0.0231
30	C19     0.4219    -4.2291    -0.2912	C.3	1	noname	-0.0215
31	C20     1.2736    -4.3934    -1.5687	C.3	1	noname	-0.0227
32	C21     2.4910    -5.2771    -1.2869	C.3	1	noname	-0.0605
33	C22     1.6751    -3.0598    -2.2028	C.3	1	noname	0.0176
34	N6     2.0572    -2.0822    -1.1917	N.3	1	noname	-0.3834
35	C23     0.8961    -1.7577    -0.2683	C.2	1	noname	0.0576
36	H1    -7.6262     0.3766    -3.3053	H	1	noname	0.0233
37	H2    -7.1332     1.5302    -2.0580	H	1	noname	0.0233
38	H3    -7.4282     2.0893    -3.7138	H	1	noname	0.0233
39	H4    -5.5117     0.7464    -4.5348	H	1	noname	0.0301
40	H5    -5.5826    -1.0591    -2.8606	H	1	noname	0.0287
41	H6    -5.1206     0.0612    -1.5784	H	1	noname	0.0287
42	H7    -3.1885    -1.2226    -2.3701	H	1	noname	0.0494
43	H8    -3.4352    -0.6820    -4.0326	H	1	noname	0.0494
44	H9    -2.7457     2.8916    -2.8530	H	1	noname	0.0595
45	H10    -4.8793     2.6003    -2.1953	H	1	noname	0.0294
46	H11    -5.0529     3.0806    -3.8769	H	1	noname	0.0294
47	H12    -0.8591     2.6228    -2.6877	H	1	noname	0.0579
48	H13     0.1271     1.1155    -4.5219	H	1	noname	0.0290
49	H14     1.3839     0.6897    -3.4301	H	1	noname	0.0290
50	H15     0.6585     3.5833    -4.1466	H	1	noname	0.0325
51	H16     2.0387     3.0931    -3.1768	H	1	noname	0.0325
52	H17     1.5941     2.0789    -6.0545	H	1	noname	0.0924
53	H18     3.0756     1.9491    -5.0488	H	1	noname	0.0924
54	H19     1.7864     4.3639    -6.1484	H	1	noname	0.3489
55	H20     2.9560     4.4766    -5.0161	H	1	noname	0.3489
56	H21     5.5258     3.6710    -7.1352	H	1	noname	0.1263
57	H22     5.1588     3.7202    -5.5022	H	1	noname	0.1263
58	H23     2.2804     3.5578    -8.3068	H	1	noname	0.1263
59	H24     3.9135     3.6073    -8.7212	H	1	noname	0.1263
60	H25     0.4137     2.8984    -0.9136	H	1	noname	0.1418
61	H26    -0.7464     0.7188     1.2669	H	1	noname	0.0638
62	H27    -2.0529    -1.1633     2.0465	H	1	noname	0.0623
63	H28    -1.5131    -3.4079     1.3331	H	1	noname	0.0626
64	H29    -0.5386    -4.7272    -0.4846	H	1	noname	0.0320
65	H30     0.8828    -4.7735     0.5443	H	1	noname	0.0320
66	H31     0.6688    -4.9327    -2.3109	H	1	noname	0.0321
67	H32     3.1259    -4.8599    -0.4987	H	1	noname	0.0234
68	H33     2.1625    -6.2720    -0.9689	H	1	noname	0.0234
69	H34     3.1002    -5.4021    -2.1887	H	1	noname	0.0234
70	H35     0.8482    -2.6678    -2.8098	H	1	noname	0.0493
71	H36     2.5150    -3.2063    -2.8926	H	1	noname	0.0493
72	H37     2.4303    -1.2330    -1.6275	H	1	noname	0.1601
@<TRIPOS>BOND
1	2	1	1
2	2	3	1
3	3	4	1
4	4	5	1
5	6	5	1
6	6	7	1
7	2	7	1
8	6	8	1
9	8	9	1
10	8	10	2
11	5	11	1
12	11	12	2
13	13	11	1
14	13	14	1
15	14	15	1
16	15	16	1
17	16	17	1
18	17	18	1
19	18	19	1
20	18	20	1
21	13	21	1
22	21	22	1
23	22	23	2
24	22	24	2
25	22	25	1
26	25	26	2
27	26	27	1
28	27	28	2
29	28	29	1
30	29	30	1
31	31	30	1
32	31	32	1
33	31	33	1
34	33	34	1
35	34	35	1
36	25	35	1
37	29	35	2
38	1	36	1
39	1	37	1
40	1	38	1
41	2	39	1
42	3	40	1
43	3	41	1
44	4	42	1
45	4	43	1
46	6	44	1
47	7	45	1
48	7	46	1
49	13	47	1
50	14	48	1
51	14	49	1
52	15	50	1
53	15	51	1
54	16	52	1
55	16	53	1
56	17	54	1
57	17	55	1
58	19	56	1
59	19	57	1
60	20	58	1
61	20	59	1
62	21	60	1
63	26	61	1
64	27	62	1
65	28	63	1
66	30	64	1
67	30	65	1
68	31	66	1
69	32	67	1
70	32	68	1
71	32	69	1
72	33	70	1
73	33	71	1
74	34	72	1
@<TRIPOS>SUBSTRUCTURE
1	noname	1
@<TRIPOS>MOLECULE
HYWDZFAWROIDBY-XMMPIXPASA-N_1_1
70 73 1
SMALL
GASTEIGER
@<TRIPOS>ATOM
1	N1     1.1266    -8.0440     9.6912	N.4	1	noname	-0.3295
2	C1    -0.0205    -7.9102     8.9039	C.3	1	noname	0.2469
3	N2    -0.9421    -8.8770     9.0490	N.3	1	noname	-0.2680
4	C2    -0.1800    -6.7607     7.9983	C.2	1	noname	0.0366
5	C3    -1.3808    -6.4626     7.4358	C.2	1	noname	-0.0507
6	C4    -1.5284    -5.4133     6.6031	C.2	1	noname	-0.0584
7	C5    -0.4797    -4.6238     6.2895	C.2	1	noname	-0.0454
8	C6    -0.6365    -3.4712     5.3065	C.3	1	noname	0.0017
9	C7    -0.5066    -3.9618     3.8505	C.3	1	noname	0.1119
10	N3    -0.6516    -2.8705     2.8867	N.3	1	noname	-0.3428
11	C8    -0.9929    -3.1740     1.5795	C.2	1	noname	0.2352
12	O1    -1.4525    -4.2637     1.2454	O.2	1	noname	-0.2736
13	C9    -0.7056    -2.0700     0.5612	C.3	1	noname	0.0898
14	N4    -0.4763    -0.7400     1.1951	N.3	1	noname	-0.2018
15	S1     0.1122     0.4494     0.1236	S	1	noname	0.2406
16	O2    -0.5310     0.1763    -1.1451	O.2	1	noname	-0.2071
17	O3    -0.1438     1.6901     0.8264	O.2	1	noname	-0.2071
18	C10     1.8316     0.2124     0.0010	C.2	1	noname	0.0826
19	C11     2.4476     0.3816    -1.1876	C.2	1	noname	-0.0415
20	C12     3.7887     0.2498    -1.2685	C.2	1	noname	-0.0530
21	C13     4.5119    -0.0455    -0.1629	C.2	1	noname	-0.0183
22	C14     5.8597    -0.1518    -0.2313	C.2	1	noname	-0.0544
23	C15     6.5734    -0.4405     0.8761	C.2	1	noname	-0.0616
24	C16     5.9490    -0.6339     2.0541	C.2	1	noname	-0.0616
25	C17     4.6069    -0.5292     2.1358	C.2	1	noname	-0.0543
26	C18     3.8811    -0.2278     1.0342	C.2	1	noname	-0.0171
27	C19     2.5367    -0.0938     1.1114	C.2	1	noname	-0.0343
28	C20     0.9126    -4.5272     3.6136	C.2	1	noname	0.2450
29	O4     1.8853    -3.7740     3.7610	O.2	1	noname	-0.2725
30	N5     1.0714    -5.8470     3.2121	N.3	1	noname	-0.3409
31	C21     2.4322    -6.3336     2.9801	C.3	1	noname	0.0205
32	C22     2.5379    -7.8211     3.2880	C.3	1	noname	-0.0354
33	C23     1.6240    -8.6416     2.3792	C.3	1	noname	-0.0499
34	C24     0.3601    -7.8867     1.9687	C.3	1	noname	-0.0354
35	C25    -0.0237    -6.7952     2.9642	C.3	1	noname	0.0205
36	C26     0.7155    -4.8933     6.8617	C.2	1	noname	-0.0584
37	C27     0.8652    -5.9449     7.6924	C.2	1	noname	-0.0507
38	H1     1.1634    -7.3085    10.4059	H	1	noname	0.3462
39	H2     1.9821    -7.9836     9.1284	H	1	noname	0.3462
40	H3     1.1532    -8.9486    10.1711	H	1	noname	0.3462
41	H4    -0.9291    -9.6297     9.7272	H	1	noname	0.1252
42	H5    -1.8317    -8.8400     8.5577	H	1	noname	0.1252
43	H6    -2.2715    -7.0543     7.6284	H	1	noname	0.0629
44	H7    -2.5097    -5.2183     6.1725	H	1	noname	0.0626
45	H8    -1.6162    -2.9898     5.4476	H	1	noname	0.0343
46	H9     0.0992    -2.6834     5.5220	H	1	noname	0.0343
47	H10    -1.2949    -4.6877     3.6606	H	1	noname	0.0636
48	H11    -0.0010    -2.0933     2.9734	H	1	noname	0.1639
49	H12    -1.5811    -2.0099    -0.0930	H	1	noname	0.0542
50	H13     0.1781    -2.3759    -0.0090	H	1	noname	0.0542
51	H14    -1.3301    -0.3645     1.6169	H	1	noname	0.1415
52	H15     1.8840     0.6380    -2.0835	H	1	noname	0.0637
53	H16     4.2714     0.3978    -2.2333	H	1	noname	0.0630
54	H17     6.3897    -0.0002    -1.1694	H	1	noname	0.0629
55	H18     7.6563    -0.5146     0.8142	H	1	noname	0.0623
56	H19     6.5285    -0.8678     2.9435	H	1	noname	0.0623
57	H20     4.1297    -0.6871     3.1005	H	1	noname	0.0629
58	H21     2.0253    -0.2118     2.0638	H	1	noname	0.0643
59	H22     2.6869    -6.1248     1.9339	H	1	noname	0.0494
60	H23     3.1455    -5.7767     3.5961	H	1	noname	0.0494
61	H24     3.5736    -8.1665     3.1967	H	1	noname	0.0285
62	H25     2.2444    -7.9900     4.3330	H	1	noname	0.0285
63	H26     2.1680    -8.9314     1.4725	H	1	noname	0.0268
64	H27     1.3566    -9.5759     2.8873	H	1	noname	0.0268
65	H28     0.5301    -7.4217     0.9895	H	1	noname	0.0285
66	H29    -0.4667    -8.5941     1.8346	H	1	noname	0.0285
67	H30    -0.9056    -6.2824     2.5833	H	1	noname	0.0494
68	H31    -0.2918    -7.2322     3.9345	H	1	noname	0.0494
69	H32     1.5798    -4.2689     6.6322	H	1	noname	0.0626
70	H33     1.8676    -6.0975     8.0815	H	1	noname	0.0629
@<TRIPOS>BOND
1	1	2	1
2	2	3	1
3	2	4	1
4	4	5	2
5	5	6	1
6	6	7	2
7	7	8	1
8	9	8	1
9	9	10	1
10	10	11	1
11	11	12	2
12	11	13	1
13	13	14	1
14	14	15	1
15	15	16	2
16	15	17	2
17	15	18	1
18	18	19	1
19	19	20	2
20	20	21	1
21	21	22	2
22	22	23	1
23	23	24	2
24	24	25	1
25	25	26	2
26	21	26	1
27	26	27	1
28	18	27	2
29	9	28	1
30	28	29	2
31	28	30	1
32	30	31	1
33	31	32	1
34	32	33	1
35	33	34	1
36	34	35	1
37	30	35	1
38	7	36	1
39	36	37	2
40	4	37	1
41	1	38	1
42	1	39	1
43	1	40	1
44	3	41	1
45	3	42	1
46	5	43	1
47	6	44	1
48	8	45	1
49	8	46	1
50	9	47	1
51	10	48	1
52	13	49	1
53	13	50	1
54	14	51	1
55	19	52	1
56	20	53	1
57	22	54	1
58	23	55	1
59	24	56	1
60	25	57	1
61	27	58	1
62	31	59	1
63	31	60	1
64	32	61	1
65	32	62	1
66	33	63	1
67	33	64	1
68	34	65	1
69	34	66	1
70	35	67	1
71	35	68	1
72	36	69	1
73	37	70	1
@<TRIPOS>SUBSTRUCTURE
1	noname	1
@<TRIPOS>MOLECULE
VSQYRNMUORBFHS-AJYBTWMASA-N_1_1
61 63 1
SMALL
GASTEIGER
@<TRIPOS>ATOM
1	C1     1.0331    -0.1855    -0.6394	C.3	1	noname	0.0775
2	O1    -0.2876    -0.0152    -0.1579	O.3	1	noname	-0.4959
3	C2    -0.5682     0.4799     1.1031	C.2	1	noname	0.1322
4	C3    -1.8588     0.8619     1.2567	C.2	1	noname	-0.0055
5	C4    -2.3281     1.3977     2.4040	C.2	1	noname	0.0106
6	S1    -3.9680     1.9571     2.5887	S.3	1	noname	-0.1295
7	C5    -4.9193     0.8157     1.5598	C.3	1	noname	-0.0136
8	C6    -1.4799     1.5490     3.4423	C.2	1	noname	-0.0475
9	C7    -0.1916     1.1762     3.3263	C.2	1	noname	-0.0446
10	C8     0.2707     0.6579     2.1632	C.2	1	noname	0.0814
11	C9     1.7353     0.3665     2.1732	C.2	1	noname	0.2551
12	O2     2.1944    -0.7587     2.0411	O.2	1	noname	-0.2691
13	N1     2.4968     1.5029     2.2993	N.3	1	noname	-0.3430
14	C10     3.8980     1.5679     1.9428	C.3	1	noname	0.0767
15	C11     4.6819     1.7732     3.2092	C.2	1	noname	-0.0508
16	C12     5.6564     2.6943     3.3516	C.2	1	noname	0.0177
17	C13     6.0439     3.6290     2.2335	C.3	1	noname	0.0062
18	C14     5.5581     3.1573     0.8540	C.3	1	noname	0.0864
19	O3     6.4132     2.1357     0.3325	O.3	1	noname	-0.3900
20	C15     4.0996     2.6941     0.8952	C.3	1	noname	0.1040
21	O4     3.2527     3.8199     1.2105	O.3	1	noname	-0.3879
22	C16     6.3945     2.7155     4.6556	C.2	1	noname	0.2472
23	O5     6.1773     1.8965     5.5408	O.2	1	noname	-0.2697
24	N2     7.3824     3.6628     4.7676	N.3	1	noname	-0.3402
25	C17     7.9922     3.9893     6.0649	C.3	1	noname	0.1125
26	C18     7.0157     4.6625     7.0450	C.3	1	noname	0.0111
27	C19     6.5265     5.9906     6.5366	C.2	1	noname	0.0071
28	C20     7.1165     7.1806     6.7475	C.2	1	noname	-0.0482
29	C21     6.4689     8.2101     6.1809	C.2	1	noname	-0.0512
30	C22     5.3583     7.8444     5.5276	C.2	1	noname	-0.0090
31	S2     5.0597     6.1338     5.5918	S.3	1	noname	-0.1488
32	C23     8.7567     2.8299     6.7453	C.2	1	noname	0.2399
33	N3     9.2090     1.8402     5.9140	N.3	1	noname	-0.3679
34	O6     9.0950     2.8403     7.9259	O.2	1	noname	-0.2729
35	H1     1.6316     0.7178    -0.4985	H	1	noname	0.0669
36	H2     0.9664    -0.3688    -1.7161	H	1	noname	0.0669
37	H3     1.4966    -1.0689    -0.1994	H	1	noname	0.0669
38	H4    -2.5101     0.7379     0.3962	H	1	noname	0.0674
39	H5    -5.9855     0.9945     1.7264	H	1	noname	0.0348
40	H6    -4.6975    -0.2240     1.8178	H	1	noname	0.0348
41	H7    -4.7163     0.9849     0.4981	H	1	noname	0.0348
42	H8    -1.8227     1.9819     4.3786	H	1	noname	0.0635
43	H9     0.4727     1.3128     4.1770	H	1	noname	0.0633
44	H10     2.0395     2.4053     2.3733	H	1	noname	0.1640
45	H11     4.2155     0.6125     1.5059	H	1	noname	0.0603
46	H12     4.4438     1.0988     4.0334	H	1	noname	0.0603
47	H13     5.6180     4.6153     2.4603	H	1	noname	0.0346
48	H14     7.1346     3.7290     2.1828	H	1	noname	0.0346
49	H15     5.6468     4.0048     0.1655	H	1	noname	0.0632
50	H16     6.5789     1.4718     1.0261	H	1	noname	0.2106
51	H17     3.7752     2.3213    -0.0842	H	1	noname	0.0654
52	H18     3.3363     4.4533     0.4750	H	1	noname	0.2107
53	H19     7.3629     4.4382     4.1205	H	1	noname	0.1642
54	H20     8.7838     4.7078     5.8112	H	1	noname	0.0636
55	H21     6.1694     3.9980     7.2615	H	1	noname	0.0351
56	H22     7.5142     4.8234     8.0100	H	1	noname	0.0351
57	H23     8.0286     7.3022     7.3180	H	1	noname	0.0634
58	H24     6.8055     9.2349     6.2496	H	1	noname	0.0632
59	H25     4.6941     8.5268     5.0131	H	1	noname	0.0740
60	H26     8.6204     1.6298     5.1159	H	1	noname	0.1592
61	H27     9.5877     1.0321     6.3936	H	1	noname	0.1592
@<TRIPOS>BOND
1	1	2	1
2	2	3	1
3	3	4	2
4	4	5	1
5	5	6	1
6	6	7	1
7	5	8	2
8	8	9	1
9	9	10	2
10	3	10	1
11	10	11	1
12	11	12	2
13	11	13	1
14	14	13	1
15	14	15	1
16	15	16	2
17	16	17	1
18	18	17	1
19	18	19	1
20	20	18	1
21	20	14	1
22	20	21	1
23	16	22	1
24	22	23	2
25	22	24	1
26	25	24	1
27	25	26	1
28	26	27	1
29	27	28	2
30	28	29	1
31	29	30	2
32	30	31	1
33	27	31	1
34	25	32	1
35	32	33	1
36	32	34	2
37	1	35	1
38	1	36	1
39	1	37	1
40	4	38	1
41	7	39	1
42	7	40	1
43	7	41	1
44	8	42	1
45	9	43	1
46	13	44	1
47	14	45	1
48	15	46	1
49	17	47	1
50	17	48	1
51	18	49	1
52	19	50	1
53	20	51	1
54	21	52	1
55	24	53	1
56	25	54	1
57	26	55	1
58	26	56	1
59	28	57	1
60	29	58	1
61	30	59	1
62	33	60	1
63	33	61	1
@<TRIPOS>SUBSTRUCTURE
1	noname	1
@<TRIPOS>MOLECULE
RNQGIIPLQFNEAM-JEPPUSMKSA-N_1_1
76 79 1
SMALL
GASTEIGER
@<TRIPOS>ATOM
1	C1    -6.2375     1.7952     2.6769	C.3	1	noname	-0.0654
2	C2    -4.7197     1.7381     2.5868	C.3	1	noname	-0.0562
3	C3    -4.2595     0.5351     1.7637	C.3	1	noname	-0.0531
4	C4    -2.7339     0.4704     1.6431	C.3	1	noname	-0.0445
5	C5    -2.3068    -0.6905     0.7473	C.3	1	noname	0.0269
6	C6    -0.7975    -0.8570     0.7085	C.2	1	noname	0.2256
7	O1    -0.1545    -0.9761     1.7474	O.2	1	noname	-0.2747
8	N1    -0.2877    -0.9022    -0.5737	N.3	1	noname	-0.3020
9	C7     0.9633    -1.3140    -0.9117	C.2	1	noname	0.1893
10	N2     1.8516    -1.9039    -0.0580	N.2	1	noname	-0.2244
11	C8     2.8623    -2.5134    -0.7671	C.2	1	noname	0.0610
12	C9     3.9598    -3.2508    -0.0395	C.3	1	noname	0.0169
13	C10     3.4321    -4.3801     0.8848	C.3	1	noname	0.0358
14	C11     2.5096    -3.9196     1.9845	C.2	1	noname	0.2246
15	O2     3.0025    -3.4341     3.0104	O.2	1	noname	-0.2747
16	N3     1.1538    -4.0535     1.9344	N.3	1	noname	-0.3259
17	C12     0.1863    -4.4492     1.0244	C.2	1	noname	0.0443
18	C13    -1.0996    -4.3829     1.4599	C.2	1	noname	-0.0383
19	C14    -2.1363    -4.6897     0.6547	C.2	1	noname	-0.0565
20	C15    -1.9050    -5.0746    -0.6120	C.2	1	noname	-0.0201
21	C16    -0.6432    -5.1663    -1.0691	C.2	1	noname	0.1172
22	O3    -0.4431    -5.5650    -2.3772	O.3	1	noname	-0.5079
23	C17     0.3913    -4.8560    -0.2523	C.2	1	noname	0.0034
24	C18     5.1073    -3.7782    -1.0336	C.3	1	noname	-0.0197
25	C19     4.7589    -5.1990    -1.5401	C.3	1	noname	-0.0587
26	C20     6.4359    -3.8349    -0.2317	C.3	1	noname	-0.0444
27	C21     7.6744    -4.0409    -1.0904	C.3	1	noname	-0.0258
28	C22     7.7951    -2.9384    -2.1411	C.3	1	noname	0.0618
29	O4     9.0160    -3.1299    -2.8512	O.3	1	noname	-0.3925
30	C23     6.5768    -2.8963    -3.1126	C.3	1	noname	0.0203
31	C24     6.7080    -1.6140    -3.9861	C.3	1	noname	-0.0546
32	C25     6.6666    -4.0902    -4.1007	C.3	1	noname	0.0512
33	O5     5.4968    -4.2147    -4.8954	O.3	1	noname	-0.3957
34	C26     5.2627    -2.7671    -2.2392	C.3	1	noname	-0.0204
35	C27     3.9325    -2.6425    -3.0314	C.3	1	noname	-0.0123
36	C28     2.8195    -2.2982    -2.0954	C.2	1	noname	0.0304
37	S1     1.3972    -1.3952    -2.6040	S.3	1	noname	-0.1014
38	H1    -6.5529     2.6724     3.2493	H	1	noname	0.0230
39	H2    -6.6343     0.9036     3.1734	H	1	noname	0.0230
40	H3    -6.6916     1.8632     1.6833	H	1	noname	0.0230
41	H4    -4.3036     1.6797     3.5990	H	1	noname	0.0264
42	H5    -4.3476     2.6644     2.1338	H	1	noname	0.0264
43	H6    -4.6216    -0.3856     2.2356	H	1	noname	0.0267
44	H7    -4.7126     0.5773     0.7650	H	1	noname	0.0267
45	H8    -2.2899     0.3611     2.6418	H	1	noname	0.0272
46	H9    -2.3531     1.4094     1.2248	H	1	noname	0.0272
47	H10    -2.7134    -0.5663    -0.2613	H	1	noname	0.0367
48	H11    -2.7155    -1.6300     1.1348	H	1	noname	0.0367
49	H12    -0.8793    -0.6567    -1.3544	H	1	noname	0.1718
50	H13     4.4179    -2.4914     0.6124	H	1	noname	0.0380
51	H14     2.9866    -5.2184     0.3532	H	1	noname	0.0374
52	H15     4.2875    -4.8288     1.4106	H	1	noname	0.0374
53	H16     0.7799    -3.6351     2.7817	H	1	noname	0.1694
54	H17    -1.3247    -4.0679     2.4768	H	1	noname	0.0645
55	H18    -3.1557    -4.6233     1.0258	H	1	noname	0.0625
56	H19    -2.7361    -5.3116    -1.2705	H	1	noname	0.0662
57	H20     0.4979    -5.6491    -2.6023	H	1	noname	0.2931
58	H21     1.3772    -4.9134    -0.6801	H	1	noname	0.0684
59	H22     4.8129    -5.9379    -0.7334	H	1	noname	0.0236
60	H23     3.7512    -5.2428    -1.9642	H	1	noname	0.0236
61	H24     5.4436    -5.5603    -2.3014	H	1	noname	0.0236
62	H25     6.5736    -2.8936     0.3162	H	1	noname	0.0273
63	H26     6.3998    -4.6215     0.5298	H	1	noname	0.0273
64	H27     8.5677    -4.0290    -0.4506	H	1	noname	0.0293
65	H28     7.6743    -5.0361    -1.5520	H	1	noname	0.0293
66	H29     7.8734    -1.9711    -1.6271	H	1	noname	0.0607
67	H30     9.7364    -3.1126    -2.1972	H	1	noname	0.2105
68	H31     6.5930    -0.7071    -3.3810	H	1	noname	0.0238
69	H32     7.6889    -1.5604    -4.4740	H	1	noname	0.0238
70	H33     5.9548    -1.5845    -4.7818	H	1	noname	0.0238
71	H34     7.5120    -3.9532    -4.7867	H	1	noname	0.0571
72	H35     6.8392    -5.0431    -3.5995	H	1	noname	0.0571
73	H36     5.6697    -4.9214    -5.5414	H	1	noname	0.2101
74	H37     5.3855    -1.7877    -1.7462	H	1	noname	0.0320
75	H38     3.6703    -3.5662    -3.5530	H	1	noname	0.0328
76	H39     4.0179    -1.8518    -3.7842	H	1	noname	0.0328
@<TRIPOS>BOND
1	1	2	1
2	2	3	1
3	3	4	1
4	4	5	1
5	5	6	1
6	6	7	2
7	6	8	1
8	8	9	1
9	9	10	2
10	10	11	1
11	12	11	1
12	12	13	1
13	13	14	1
14	14	15	2
15	14	16	1
16	16	17	1
17	17	18	2
18	18	19	1
19	19	20	2
20	20	21	1
21	21	22	1
22	21	23	2
23	17	23	1
24	24	12	1
25	24	25	1
26	24	26	1
27	26	27	1
28	28	27	1
29	28	29	1
30	30	28	1
31	30	31	1
32	30	32	1
33	32	33	1
34	34	30	1
35	24	34	1
36	34	35	1
37	35	36	1
38	11	36	2
39	36	37	1
40	9	37	1
41	1	38	1
42	1	39	1
43	1	40	1
44	2	41	1
45	2	42	1
46	3	43	1
47	3	44	1
48	4	45	1
49	4	46	1
50	5	47	1
51	5	48	1
52	8	49	1
53	12	50	1
54	13	51	1
55	13	52	1
56	16	53	1
57	18	54	1
58	19	55	1
59	20	56	1
60	22	57	1
61	23	58	1
62	25	59	1
63	25	60	1
64	25	61	1
65	26	62	1
66	26	63	1
67	27	64	1
68	27	65	1
69	28	66	1
70	29	67	1
71	31	68	1
72	31	69	1
73	31	70	1
74	32	71	1
75	32	72	1
76	33	73	1
77	34	74	1
78	35	75	1
79	35	76	1
@<TRIPOS>SUBSTRUCTURE
1	noname	1
@<TRIPOS>MOLECULE
QAWWUDBCOTUREF-FQEVSTJZSA-N_1_1
61 63 1
SMALL
GASTEIGER
@<TRIPOS>ATOM
1	C1    -0.1310     8.2087    -1.9340	C.3	1	noname	-0.0627
2	C2    -0.3438     6.8411    -2.5892	C.3	1	noname	-0.0455
3	C3     0.3246     6.8148    -3.9655	C.3	1	noname	-0.0627
4	C4     0.1870     5.7368    -1.6634	C.3	1	noname	-0.0334
5	C5    -0.1008     4.3223    -2.1575	C.3	1	noname	0.0177
6	N1     0.4356     3.3650    -1.2063	N.3	1	noname	-0.3540
7	C6     0.7525     2.0700    -1.5917	C.2	1	noname	0.2474
8	O1     0.6685     1.7069    -2.7626	O.2	1	noname	-0.2723
9	C7     1.2850     1.1637    -0.4244	C.3	1	noname	0.1410
10	N2     0.7447    -0.2419    -0.5108	N.3	1	noname	-0.2907
11	C8    -0.4394    -0.5572     0.2088	C.2	1	noname	0.2727
12	O2    -1.1224    -1.5734     0.0754	O.2	1	noname	-0.2676
13	C9    -0.9376     0.4113     1.2186	C.2	1	noname	0.1368
14	S1    -0.5052     0.2311     2.8808	S.3	1	noname	-0.0280
15	N3    -1.4203     1.5892     3.3420	N.2	1	noname	-0.1844
16	C10    -2.0196     2.0773     2.1901	C.2	1	noname	0.1649
17	C11    -2.9326     3.2638     2.2743	C.2	1	noname	0.2701
18	N4    -3.1543     3.7404     3.5294	N.3	1	noname	-0.3642
19	O3    -3.4677     3.7841     1.3021	O.2	1	noname	-0.2676
20	C12    -1.7644     1.4438     1.0254	C.2	1	noname	0.0891
21	N5    -2.2692     1.8126    -0.2423	N.3	1	noname	-0.3954
22	C13     1.3526    -1.1972    -1.4016	C.2	1	noname	0.0489
23	C14     2.2607    -0.8278    -2.3451	C.2	1	noname	-0.0380
24	C15     2.8667    -1.7116    -3.1597	C.2	1	noname	-0.0565
25	C16     2.5642    -3.0146    -3.0749	C.2	1	noname	-0.0201
26	C17     1.6631    -3.4300    -2.1697	C.2	1	noname	0.1172
27	O4     1.3556    -4.7764    -2.1060	O.3	1	noname	-0.5079
28	C18     1.0816    -2.5331    -1.3415	C.2	1	noname	0.0037
29	C19     2.7980     1.2098    -0.1425	C.2	1	noname	-0.0155
30	C20     3.3000     0.4831     0.8909	C.2	1	noname	-0.0549
31	C21     4.6198     0.4782     1.1639	C.2	1	noname	-0.0432
32	C22     5.4659     1.2045     0.4089	C.2	1	noname	0.0406
33	Cl1     7.1580     1.2026     0.7572	Cl	1	noname	-0.0843
34	C23     4.9896     1.9379    -0.6152	C.2	1	noname	-0.0432
35	C24     3.6679     1.9463    -0.8836	C.2	1	noname	-0.0549
36	H1     0.9310     8.4095    -1.7547	H	1	noname	0.0233
37	H2    -0.5227     9.0080    -2.5713	H	1	noname	0.0233
38	H3    -0.6505     8.2638    -0.9712	H	1	noname	0.0233
39	H4    -1.4233     6.6996    -2.7275	H	1	noname	0.0298
40	H5     1.4153     6.8778    -3.8839	H	1	noname	0.0233
41	H6    -0.0157     7.6573    -4.5767	H	1	noname	0.0233
42	H7     0.0768     5.8990    -4.5109	H	1	noname	0.0233
43	H8     1.2720     5.8491    -1.5365	H	1	noname	0.0287
44	H9    -0.2504     5.8592    -0.6626	H	1	noname	0.0287
45	H10    -1.1782     4.1406    -2.2484	H	1	noname	0.0491
46	H11     0.3565     4.1442    -3.1349	H	1	noname	0.0491
47	H12     0.1380     3.5005    -0.2492	H	1	noname	0.1630
48	H13     0.8818     1.6377     0.4732	H	1	noname	0.0691
49	H14    -3.8077     4.5053     3.6400	H	1	noname	0.1595
50	H15    -2.8032     3.2544     4.3440	H	1	noname	0.1595
51	H16    -3.0594     2.4644    -0.2289	H	1	noname	0.1563
52	H17    -2.3779     1.0891    -0.9523	H	1	noname	0.1563
53	H18     2.5418     0.2001    -2.5109	H	1	noname	0.0645
54	H19     3.5937    -1.3657    -3.8901	H	1	noname	0.0625
55	H20     3.0418    -3.7270    -3.7392	H	1	noname	0.0662
56	H21     0.6284    -4.9538    -1.4869	H	1	noname	0.2931
57	H22     0.3948    -2.9355    -0.6105	H	1	noname	0.0684
58	H23     2.6440    -0.1251     1.5113	H	1	noname	0.0627
59	H24     4.9945    -0.1200     1.9916	H	1	noname	0.0639
60	H25     5.6679     2.5222    -1.2318	H	1	noname	0.0639
61	H26     3.3295     2.5459    -1.7269	H	1	noname	0.0627
@<TRIPOS>BOND
1	1	2	1
2	2	3	1
3	2	4	1
4	4	5	1
5	5	6	1
6	6	7	1
7	7	8	2
8	9	7	1
9	9	10	1
10	10	11	1
11	11	12	2
12	11	13	1
13	13	14	1
14	14	15	1
15	15	16	2
16	16	17	1
17	17	18	1
18	17	19	2
19	16	20	1
20	13	20	2
21	20	21	1
22	10	22	1
23	22	23	2
24	23	24	1
25	24	25	2
26	25	26	1
27	26	27	1
28	26	28	2
29	22	28	1
30	9	29	1
31	29	30	2
32	30	31	1
33	31	32	2
34	32	33	1
35	32	34	1
36	34	35	2
37	29	35	1
38	1	36	1
39	1	37	1
40	1	38	1
41	2	39	1
42	3	40	1
43	3	41	1
44	3	42	1
45	4	43	1
46	4	44	1
47	5	45	1
48	5	46	1
49	6	47	1
50	9	48	1
51	18	49	1
52	18	50	1
53	21	51	1
54	21	52	1
55	23	53	1
56	24	54	1
57	25	55	1
58	27	56	1
59	28	57	1
60	30	58	1
61	31	59	1
62	34	60	1
63	35	61	1
@<TRIPOS>SUBSTRUCTURE
1	noname	1
@<TRIPOS>MOLECULE
VLJRYRHTGAATRA-NRFANRHFSA-N_1_1
68 70 1
SMALL
GASTEIGER
@<TRIPOS>ATOM
1	C1     5.8136     1.2637    -1.2904	C.3	1	noname	-0.0632
2	C2     5.6268     2.3264    -0.2113	C.3	1	noname	-0.0333
3	C3     4.1660     2.7889     0.0253	C.3	1	noname	0.0342
4	C4     3.5935     3.4235    -1.2618	C.3	1	noname	-0.0421
5	C5     4.1543     3.8905     1.1081	C.3	1	noname	-0.0421
6	N1     3.3131     1.6456     0.4199	N.3	1	noname	-0.3491
7	C6     3.3848     0.9705     1.6331	C.2	1	noname	0.2478
8	O1     4.1843     1.2782     2.5192	O.2	1	noname	-0.2723
9	C7     2.4760    -0.3057     1.7766	C.3	1	noname	0.1411
10	N2     2.0788    -0.6211     3.1815	N.3	1	noname	-0.2879
11	C8     1.4595     0.4054     3.9142	C.2	1	noname	0.2727
12	O2     1.1999     1.5165     3.4510	O.2	1	noname	-0.2676
13	C9     1.1499     0.1520     5.3511	C.2	1	noname	0.1368
14	S1    -0.4572     0.4898     5.9174	S.3	1	noname	-0.0280
15	N3    -0.0725     0.0509     7.5063	N.2	1	noname	-0.1844
16	C10     1.2782    -0.2692     7.5200	C.2	1	noname	0.1649
17	C11     1.9137    -0.6077     8.8376	C.2	1	noname	0.2701
18	N4     1.0627    -0.5779     9.9051	N.3	1	noname	-0.3642
19	O3     3.1005    -0.8749     8.9920	O.2	1	noname	-0.2676
20	C12     1.9589    -0.2195     6.3529	C.2	1	noname	0.0891
21	N5     3.3454    -0.4925     6.1988	N.3	1	noname	-0.3954
22	C13     1.9246    -1.9825     3.5067	C.2	1	noname	0.0810
23	C14     0.7031    -2.4886     3.8196	C.2	1	noname	-0.0353
24	C15     0.5498    -3.7889     4.1391	C.2	1	noname	-0.0600
25	C16     1.6152    -4.6117     4.1493	C.2	1	noname	-0.0592
26	C17     2.8303    -4.1329     3.8206	C.2	1	noname	-0.0241
27	C18     2.9801    -2.8351     3.4933	C.2	1	noname	0.1465
28	F1     4.2166    -2.3909     3.1748	F	1	noname	-0.2047
29	C19     1.2570    -0.4650     0.8615	C.2	1	noname	-0.0155
30	C20     0.3152     0.4965     0.7104	C.2	1	noname	-0.0544
31	C21    -0.7684     0.2941    -0.0637	C.2	1	noname	-0.0384
32	C22    -0.9380    -0.8772    -0.7130	C.2	1	noname	0.0361
33	C23     0.0128    -1.8306    -0.6036	C.2	1	noname	-0.0384
34	C24     1.0922    -1.6246     0.1763	C.2	1	noname	-0.0544
35	N6    -2.2263    -1.0831    -1.6014	N.3	1	noname	-0.3777
36	C25    -2.3653    -2.3914    -2.2328	C.3	1	noname	0.0061
37	C26    -3.4683    -0.6877    -0.9320	C.3	1	noname	0.0061
38	H1     5.5373     1.6381    -2.2796	H	1	noname	0.0231
39	H2     6.8690     0.9759    -1.3475	H	1	noname	0.0231
40	H3     5.2314     0.3616    -1.0769	H	1	noname	0.0231
41	H4     6.0464     1.9298     0.7205	H	1	noname	0.0287
42	H5     6.2426     3.1935    -0.4806	H	1	noname	0.0287
43	H6     2.6130     3.8767    -1.0750	H	1	noname	0.0254
44	H7     4.2552     4.2119    -1.6449	H	1	noname	0.0254
45	H8     3.4452     2.6826    -2.0540	H	1	noname	0.0254
46	H9     3.1313     4.1182     1.4328	H	1	noname	0.0254
47	H10     4.6151     4.8147     0.7379	H	1	noname	0.0254
48	H11     4.7231     3.5953     1.9946	H	1	noname	0.0254
49	H12     2.7187     1.2500    -0.3000	H	1	noname	0.1636
50	H13     3.1982    -1.0787     1.4737	H	1	noname	0.0691
51	H14     1.4371    -0.7626    10.8250	H	1	noname	0.1595
52	H15     0.0996    -0.2852     9.8040	H	1	noname	0.1595
53	H16     3.9043    -0.4882     7.0544	H	1	noname	0.1563
54	H17     3.8268    -0.0885     5.3988	H	1	noname	0.1563
55	H18    -0.1846    -1.8623     3.7927	H	1	noname	0.0646
56	H19    -0.4361    -4.1736     4.3876	H	1	noname	0.0623
57	H20     1.4940    -5.6571     4.4195	H	1	noname	0.0624
58	H21     3.6980    -4.7845     3.8252	H	1	noname	0.0654
59	H22     0.4083     1.4513     1.2198	H	1	noname	0.0627
60	H23    -1.4928     1.0969    -0.1557	H	1	noname	0.0645
61	H24    -0.0704    -2.7844    -1.1138	H	1	noname	0.0645
62	H25     1.8231    -2.4251     0.2630	H	1	noname	0.0627
63	H26    -3.2374    -2.4098    -2.8952	H	1	noname	0.0456
64	H27    -1.5023    -2.6088    -2.8711	H	1	noname	0.0456
65	H28    -2.4749    -3.1946    -1.4969	H	1	noname	0.0456
66	H29    -4.3341    -0.8504    -1.5829	H	1	noname	0.0456
67	H30    -3.4795     0.3784    -0.6882	H	1	noname	0.0456
68	H31    -3.6244    -1.2566    -0.0089	H	1	noname	0.0456
@<TRIPOS>BOND
1	1	2	1
2	2	3	1
3	3	4	1
4	3	5	1
5	3	6	1
6	6	7	1
7	7	8	2
8	9	7	1
9	9	10	1
10	10	11	1
11	11	12	2
12	11	13	1
13	13	14	1
14	14	15	1
15	15	16	2
16	16	17	1
17	17	18	1
18	17	19	2
19	16	20	1
20	13	20	2
21	20	21	1
22	10	22	1
23	22	23	2
24	23	24	1
25	24	25	2
26	25	26	1
27	26	27	2
28	22	27	1
29	27	28	1
30	9	29	1
31	29	30	2
32	30	31	1
33	31	32	2
34	32	33	1
35	33	34	2
36	29	34	1
37	32	35	1
38	35	36	1
39	35	37	1
40	1	38	1
41	1	39	1
42	1	40	1
43	2	41	1
44	2	42	1
45	4	43	1
46	4	44	1
47	4	45	1
48	5	46	1
49	5	47	1
50	5	48	1
51	6	49	1
52	9	50	1
53	18	51	1
54	18	52	1
55	21	53	1
56	21	54	1
57	23	55	1
58	24	56	1
59	25	57	1
60	26	58	1
61	30	59	1
62	31	60	1
63	33	61	1
64	34	62	1
65	36	63	1
66	36	64	1
67	36	65	1
68	37	66	1
69	37	67	1
70	37	68	1
@<TRIPOS>SUBSTRUCTURE
1	noname	1
@<TRIPOS>MOLECULE
OVRUUOWCNOVRKO-JOCHJYFZSA-N_1_1
70 72 1
SMALL
GASTEIGER
@<TRIPOS>ATOM
1	C1     9.1580    -2.5415    -9.5341	C.3	1	noname	-0.0307
2	C2     7.7263    -2.1214    -9.2721	C.3	1	noname	0.0854
3	O1     7.6468    -1.6466    -7.9201	O.3	1	noname	-0.4939
4	C3     6.4059    -1.9381    -7.3835	C.2	1	noname	0.1188
5	C4     5.3369    -1.1581    -7.6364	C.2	1	noname	-0.0196
6	C5     4.1229    -1.4902    -7.1571	C.2	1	noname	-0.0527
7	C6     3.9441    -2.6151    -6.4133	C.2	1	noname	-0.0154
8	C7     5.0452    -3.3500    -6.1051	C.2	1	noname	-0.0527
9	C8     6.2591    -3.0147    -6.5871	C.2	1	noname	-0.0196
10	C9     2.5185    -3.0226    -5.9680	C.3	1	noname	0.1410
11	N1     1.4803    -2.9941    -7.0565	N.3	1	noname	-0.2909
12	C10     0.3964    -2.0865    -6.8430	C.2	1	noname	0.2727
13	O2    -0.1208    -1.3834    -7.7138	O.2	1	noname	-0.2676
14	C11    -0.2090    -2.0054    -5.4868	C.2	1	noname	0.1368
15	S1     0.2639    -0.7795    -4.3585	S.3	1	noname	-0.0280
16	N2    -0.8619    -1.3043    -3.2061	N.2	1	noname	-0.1844
17	C12    -1.6351    -2.2763    -3.8203	C.2	1	noname	0.1649
18	C13    -2.8110    -2.8361    -3.0810	C.2	1	noname	0.2701
19	N3    -2.8405    -2.5352    -1.7505	N.3	1	noname	-0.3642
20	O3    -3.6916    -3.5116    -3.6017	O.2	1	noname	-0.2676
21	C14    -1.3028    -2.6567    -5.0717	C.2	1	noname	0.0891
22	N4    -2.0293    -3.6064    -5.8736	N.3	1	noname	-0.3954
23	C15     1.7244    -3.5030    -8.3806	C.2	1	noname	0.0453
24	C16     2.8813    -4.1164    -8.7408	C.2	1	noname	-0.0380
25	C17     3.1199    -4.5615    -9.9890	C.2	1	noname	-0.0570
26	C18     2.1889    -4.4463   -10.9564	C.2	1	noname	-0.0481
27	C19     2.4289    -4.9647   -12.3594	C.3	1	noname	-0.0307
28	C20     2.9743    -6.3895   -12.4132	C.3	1	noname	-0.0613
29	C21     1.0138    -3.8743   -10.6201	C.2	1	noname	-0.0570
30	C22     0.7878    -3.4234    -9.3676	C.2	1	noname	-0.0380
31	C23     2.4645    -3.9980    -4.7423	C.2	1	noname	0.2477
32	O4     2.8662    -3.5680    -3.6431	O.2	1	noname	-0.2723
33	N5     2.1483    -5.3053    -4.6862	N.3	1	noname	-0.3494
34	C24     1.6099    -6.3946    -5.5236	C.3	1	noname	0.0317
35	C25     2.4922    -6.7084    -6.7302	C.3	1	noname	-0.0424
36	C26     0.1665    -6.1132    -5.9380	C.3	1	noname	-0.0424
37	C27     1.5996    -7.6668    -4.6410	C.3	1	noname	-0.0424
38	H1     9.2675    -2.9641   -10.5359	H	1	noname	0.0265
39	H2     9.4793    -3.2894    -8.8025	H	1	noname	0.0265
40	H3     9.8294    -1.6840    -9.4316	H	1	noname	0.0265
41	H4     7.0626    -2.9790    -9.4461	H	1	noname	0.0703
42	H5     7.4369    -1.3120    -9.9513	H	1	noname	0.0703
43	H6     5.4497    -0.2689    -8.2482	H	1	noname	0.0662
44	H7     3.2774    -0.8531    -7.4089	H	1	noname	0.0628
45	H8     4.9740    -4.2432    -5.4888	H	1	noname	0.0628
46	H9     7.1286    -3.6255    -6.3536	H	1	noname	0.0662
47	H10     2.2888    -2.1030    -5.4184	H	1	noname	0.0691
48	H11    -3.6037    -2.8864    -1.1888	H	1	noname	0.1595
49	H12    -2.1191    -1.9758    -1.3141	H	1	noname	0.1595
50	H13    -2.9717    -3.8031    -5.5199	H	1	noname	0.1563
51	H14    -2.0484    -3.4017    -6.8706	H	1	noname	0.1563
52	H15     3.6786    -4.3056    -8.0428	H	1	noname	0.0645
53	H16     4.0817    -5.0196   -10.1997	H	1	noname	0.0626
54	H17     3.1179    -4.2887   -12.8797	H	1	noname	0.0313
55	H18     1.4919    -4.9518   -12.9304	H	1	noname	0.0313
56	H19     3.0424    -6.7272   -13.4530	H	1	noname	0.0234
57	H20     3.9804    -6.4578   -11.9865	H	1	noname	0.0234
58	H21     2.3230    -7.0811   -11.8669	H	1	noname	0.0234
59	H22     0.2281    -3.7625   -11.3632	H	1	noname	0.0626
60	H23    -0.1941    -2.9939    -9.2014	H	1	noname	0.0645
61	H24     2.2647    -5.5787    -3.7149	H	1	noname	0.1636
62	H25     2.4102    -7.7601    -7.0312	H	1	noname	0.0254
63	H26     3.5503    -6.5010    -6.5359	H	1	noname	0.0254
64	H27     2.1722    -6.1396    -7.5962	H	1	noname	0.0254
65	H28     0.1039    -5.2737    -6.6303	H	1	noname	0.0254
66	H29    -0.2842    -6.9804    -6.4333	H	1	noname	0.0254
67	H30    -0.4488    -5.8736    -5.0633	H	1	noname	0.0254
68	H31     1.1815    -8.5256    -5.1796	H	1	noname	0.0254
69	H32     2.6162    -7.9325    -4.3228	H	1	noname	0.0254
70	H33     1.0005    -7.5195    -3.7340	H	1	noname	0.0254
@<TRIPOS>BOND
1	1	2	1
2	2	3	1
3	3	4	1
4	4	5	2
5	5	6	1
6	6	7	2
7	7	8	1
8	8	9	2
9	4	9	1
10	10	7	1
11	10	11	1
12	11	12	1
13	12	13	2
14	12	14	1
15	14	15	1
16	15	16	1
17	16	17	2
18	17	18	1
19	18	19	1
20	18	20	2
21	17	21	1
22	14	21	2
23	21	22	1
24	11	23	1
25	23	24	2
26	24	25	1
27	25	26	2
28	26	27	1
29	27	28	1
30	26	29	1
31	29	30	2
32	23	30	1
33	10	31	1
34	31	32	2
35	31	33	1
36	33	34	1
37	34	35	1
38	34	36	1
39	34	37	1
40	1	38	1
41	1	39	1
42	1	40	1
43	2	41	1
44	2	42	1
45	5	43	1
46	6	44	1
47	8	45	1
48	9	46	1
49	10	47	1
50	19	48	1
51	19	49	1
52	22	50	1
53	22	51	1
54	24	52	1
55	25	53	1
56	27	54	1
57	27	55	1
58	28	56	1
59	28	57	1
60	28	58	1
61	29	59	1
62	30	60	1
63	33	61	1
64	35	62	1
65	35	63	1
66	35	64	1
67	36	65	1
68	36	66	1
69	36	67	1
70	37	68	1
71	37	69	1
72	37	70	1
@<TRIPOS>SUBSTRUCTURE
1	noname	1
@<TRIPOS>MOLECULE
SADXBOISBBVROJ-JOCHJYFZSA-N_1_1
66 68 1
SMALL
GASTEIGER
@<TRIPOS>ATOM
1	C1     2.5654     5.0596    -4.3179	C.3	1	noname	-0.0612
2	C2     1.6313     4.3481    -3.3437	C.3	1	noname	-0.0287
3	C3     2.3435     3.5543    -2.2586	C.2	1	noname	-0.0244
4	C4     3.2478     4.1974    -1.4748	C.2	1	noname	-0.0570
5	C5     3.9000     3.5555    -0.4892	C.2	1	noname	-0.0618
6	C6     3.6572     2.2560    -0.2519	C.2	1	noname	-0.0602
7	C7     2.7570     1.6042    -1.0079	C.2	1	noname	-0.0380
8	C8     2.0969     2.2328    -2.0162	C.2	1	noname	0.0484
9	N1     1.1406     1.5064    -2.7498	N.3	1	noname	-0.2906
10	C9    -0.0791     1.1066    -1.9968	C.3	1	noname	0.1410
11	C10    -0.5073     1.9729    -0.7641	C.2	1	noname	0.2474
12	O1    -0.4334     3.1976    -0.7125	O.2	1	noname	-0.2723
13	N2    -1.0299     1.2151     0.2733	N.3	1	noname	-0.3540
14	C11    -1.5310     1.8136     1.4949	C.3	1	noname	0.0177
15	C12    -1.1830     0.9043     2.6669	C.3	1	noname	-0.0334
16	C13    -1.5865     1.4738     4.0314	C.3	1	noname	-0.0455
17	C14    -3.1015     1.5758     4.1946	C.3	1	noname	-0.0627
18	C15    -0.9963     0.6039     5.1419	C.3	1	noname	-0.0627
19	C16    -1.3115     1.0813    -2.9161	C.2	1	noname	-0.0154
20	C17    -2.0079    -0.0725    -3.0932	C.2	1	noname	-0.0535
21	C18    -3.1049    -0.1046    -3.8780	C.2	1	noname	-0.0260
22	C19    -3.5194     1.0157    -4.4930	C.2	1	noname	0.1227
23	F1    -4.6143     0.9819    -5.2800	F	1	noname	-0.2070
24	C20    -2.8498     2.1694    -4.3283	C.2	1	noname	-0.0260
25	C21    -1.7538     2.2017    -3.5440	C.2	1	noname	-0.0535
26	C22     1.6204     0.5002    -3.6259	C.2	1	noname	0.2727
27	O2     1.1199    -0.6202    -3.7374	O.2	1	noname	-0.2676
28	C23     2.7937     0.8565    -4.4613	C.2	1	noname	0.1368
29	S1     2.5272     1.6649    -5.9661	S.3	1	noname	-0.0280
30	N3     4.1898     1.7586    -6.2867	N.2	1	noname	-0.1844
31	C24     4.8357     1.0787    -5.2617	C.2	1	noname	0.1649
32	C25     6.3249     0.9107    -5.3350	C.2	1	noname	0.2701
33	N4     6.8995     1.3853    -6.4784	N.3	1	noname	-0.3642
34	O3     7.0027     0.3714    -4.4673	O.2	1	noname	-0.2676
35	C26     4.0860     0.5730    -4.2594	C.2	1	noname	0.0891
36	N5     4.5828    -0.1612    -3.1501	N.3	1	noname	-0.3954
37	H1     3.0729     5.9085    -3.8527	H	1	noname	0.0234
38	H2     1.9965     5.4511    -5.1670	H	1	noname	0.0234
39	H3     3.3278     4.3832    -4.7110	H	1	noname	0.0234
40	H4     0.9703     5.0841    -2.8686	H	1	noname	0.0314
41	H5     0.9766     3.7041    -3.9380	H	1	noname	0.0314
42	H6     3.4489     5.2565    -1.6203	H	1	noname	0.0626
43	H7     4.6169     4.0886     0.1248	H	1	noname	0.0623
44	H8     4.1784     1.7391     0.5511	H	1	noname	0.0623
45	H9     2.5706     0.5550    -0.7929	H	1	noname	0.0645
46	H10     0.1192     0.0942    -1.6114	H	1	noname	0.0691
47	H11    -1.3466     0.2778     0.0590	H	1	noname	0.1630
48	H12    -2.6131     1.9223     1.3760	H	1	noname	0.0491
49	H13    -1.1003     2.8101     1.6368	H	1	noname	0.0491
50	H14    -0.0968     0.7426     2.6600	H	1	noname	0.0287
51	H15    -1.6408    -0.0836     2.5158	H	1	noname	0.0287
52	H16    -1.1580     2.4788     4.1267	H	1	noname	0.0298
53	H17    -3.5332     2.2768     3.4748	H	1	noname	0.0233
54	H18    -3.5870     0.6039     4.0546	H	1	noname	0.0233
55	H19    -3.3558     1.9422     5.1951	H	1	noname	0.0233
56	H20     0.0968     0.5729     5.0678	H	1	noname	0.0233
57	H21    -1.3677    -0.4248     5.0856	H	1	noname	0.0233
58	H22    -1.2529     1.0059     6.1264	H	1	noname	0.0233
59	H23    -1.6873    -0.9932    -2.6115	H	1	noname	0.0628
60	H24    -3.6578    -1.0280    -4.0223	H	1	noname	0.0654
61	H25    -3.1999     3.0671    -4.8278	H	1	noname	0.0654
62	H26    -1.2319     3.1470    -3.4127	H	1	noname	0.0628
63	H27     7.8995     1.2962    -6.5870	H	1	noname	0.1595
64	H28     6.3535     1.8220    -7.2088	H	1	noname	0.1595
65	H29     5.5478    -0.4875    -3.2271	H	1	noname	0.1563
66	H30     3.9642    -0.8218    -2.6947	H	1	noname	0.1563
@<TRIPOS>BOND
1	1	2	1
2	2	3	1
3	3	4	2
4	4	5	1
5	5	6	2
6	6	7	1
7	7	8	2
8	3	8	1
9	8	9	1
10	10	9	1
11	10	11	1
12	11	12	2
13	11	13	1
14	13	14	1
15	14	15	1
16	15	16	1
17	16	17	1
18	16	18	1
19	10	19	1
20	19	20	2
21	20	21	1
22	21	22	2
23	22	23	1
24	22	24	1
25	24	25	2
26	19	25	1
27	9	26	1
28	26	27	2
29	26	28	1
30	28	29	1
31	29	30	1
32	30	31	2
33	31	32	1
34	32	33	1
35	32	34	2
36	31	35	1
37	28	35	2
38	35	36	1
39	1	37	1
40	1	38	1
41	1	39	1
42	2	40	1
43	2	41	1
44	4	42	1
45	5	43	1
46	6	44	1
47	7	45	1
48	10	46	1
49	13	47	1
50	14	48	1
51	14	49	1
52	15	50	1
53	15	51	1
54	16	52	1
55	17	53	1
56	17	54	1
57	17	55	1
58	18	56	1
59	18	57	1
60	18	58	1
61	20	59	1
62	21	60	1
63	24	61	1
64	25	62	1
65	33	63	1
66	33	64	1
67	36	65	1
68	36	66	1
@<TRIPOS>SUBSTRUCTURE
1	noname	1
@<TRIPOS>MOLECULE
BABWTMFIEKUXMY-SFHVURJKSA-N_1_1
56 58 1
SMALL
GASTEIGER
@<TRIPOS>ATOM
1	C1     1.2893     0.2035     0.1547	C.3	1	noname	0.0355
2	O1    -0.0785     0.0891     0.5250	O.3	1	noname	-0.3829
3	C2    -0.4331     1.0303     1.5462	C.3	1	noname	0.0636
4	C3    -1.9470     0.9706     1.7486	C.3	1	noname	0.0409
5	N1    -2.6306     1.2762     0.5047	N.3	1	noname	-0.3517
6	C4    -3.9511     0.9541     0.2774	C.2	1	noname	0.2474
7	O2    -4.6750     0.4977     1.1609	O.2	1	noname	-0.2723
8	C5    -4.4547     1.2042    -1.1872	C.3	1	noname	0.1410
9	N2    -3.4381     1.9895    -1.9821	N.3	1	noname	-0.2909
10	C6    -3.2838     3.3781    -1.7820	C.2	1	noname	0.2727
11	O3    -2.2434     3.9867    -2.0614	O.2	1	noname	-0.2676
12	C7    -4.4104     4.1967    -1.2806	C.2	1	noname	0.1368
13	S1    -4.9150     4.2343     0.3685	S.3	1	noname	-0.0280
14	N3    -6.0053     5.5068     0.0812	N.2	1	noname	-0.1844
15	C8    -5.8212     5.8985    -1.2369	C.2	1	noname	0.1649
16	C9    -6.5073     7.1318    -1.7350	C.2	1	noname	0.2701
17	N4    -7.3433     7.7232    -0.8346	N.3	1	noname	-0.3642
18	O4    -6.3252     7.6186    -2.8462	O.2	1	noname	-0.2676
19	C10    -4.9598     5.1898    -1.9922	C.2	1	noname	0.0891
20	N5    -4.6203     5.4710    -3.3765	N.3	1	noname	-0.3954
21	C11    -2.5384     1.3378    -2.8701	C.2	1	noname	0.0453
22	C12    -2.1736     1.9419    -4.0339	C.2	1	noname	-0.0383
23	C13    -1.3443     1.3387    -4.9082	C.2	1	noname	-0.0602
24	C14    -0.8579     0.1127    -4.6456	C.2	1	noname	-0.0621
25	C15    -1.1990    -0.5037    -3.5004	C.2	1	noname	-0.0602
26	C16    -2.0286     0.1026    -2.6271	C.2	1	noname	-0.0383
27	C17    -4.9766    -0.0361    -1.9332	C.2	1	noname	-0.0154
28	C18    -5.5626     0.1310    -3.1480	C.2	1	noname	-0.0527
29	C19    -5.9713    -0.9255    -3.8782	C.2	1	noname	-0.0199
30	C20    -5.8271    -2.1783    -3.4036	C.2	1	noname	0.1151
31	O5    -6.2300    -3.2790    -4.1315	O.3	1	noname	-0.5080
32	C21    -5.2793    -2.3587    -2.1878	C.2	1	noname	-0.0199
33	C22    -4.8604    -1.3049    -1.4600	C.2	1	noname	-0.0527
34	H1     1.9332    -0.0394     1.0056	H	1	noname	0.0530
35	H2     1.4882    -0.5058    -0.6543	H	1	noname	0.0530
36	H3     1.5039     1.2142    -0.2076	H	1	noname	0.0530
37	H4     0.0859     0.7762     2.4758	H	1	noname	0.0585
38	H5    -0.1430     2.0386     1.2266	H	1	noname	0.0585
39	H6    -2.2577    -0.0271     2.0803	H	1	noname	0.0515
40	H7    -2.2681     1.7056     2.4950	H	1	noname	0.0515
41	H8    -2.0393     1.4469    -0.3046	H	1	noname	0.1631
42	H9    -5.3347     1.8441    -1.0611	H	1	noname	0.0691
43	H10    -7.7982     8.5871    -1.0937	H	1	noname	0.1595
44	H11    -7.4415     7.3751     0.1104	H	1	noname	0.1595
45	H12    -3.6392     5.3112    -3.6050	H	1	noname	0.1563
46	H13    -4.9202     6.4022    -3.6841	H	1	noname	0.1563
47	H14    -2.5589     2.9230    -4.3025	H	1	noname	0.0645
48	H15    -1.0732     1.8415    -5.8313	H	1	noname	0.0623
49	H16    -0.1955    -0.3766    -5.3534	H	1	noname	0.0623
50	H17    -0.8064    -1.4926    -3.2736	H	1	noname	0.0623
51	H18    -2.2502    -0.4411    -1.7149	H	1	noname	0.0645
52	H19    -5.6838     1.1301    -3.5618	H	1	noname	0.0628
53	H20    -6.4100    -0.7469    -4.8543	H	1	noname	0.0662
54	H21    -6.5685    -3.0320    -5.0074	H	1	noname	0.2931
55	H22    -5.1681    -3.3668    -1.7991	H	1	noname	0.0662
56	H23    -4.4060    -1.5114    -0.4938	H	1	noname	0.0628
@<TRIPOS>BOND
1	1	2	1
2	2	3	1
3	3	4	1
4	4	5	1
5	5	6	1
6	6	7	2
7	8	6	1
8	8	9	1
9	9	10	1
10	10	11	2
11	10	12	1
12	12	13	1
13	13	14	1
14	14	15	2
15	15	16	1
16	16	17	1
17	16	18	2
18	15	19	1
19	12	19	2
20	19	20	1
21	9	21	1
22	21	22	2
23	22	23	1
24	23	24	2
25	24	25	1
26	25	26	2
27	21	26	1
28	8	27	1
29	27	28	2
30	28	29	1
31	29	30	2
32	30	31	1
33	30	32	1
34	32	33	2
35	27	33	1
36	1	34	1
37	1	35	1
38	1	36	1
39	3	37	1
40	3	38	1
41	4	39	1
42	4	40	1
43	5	41	1
44	8	42	1
45	17	43	1
46	17	44	1
47	20	45	1
48	20	46	1
49	22	47	1
50	23	48	1
51	24	49	1
52	25	50	1
53	26	51	1
54	28	52	1
55	29	53	1
56	31	54	1
57	32	55	1
58	33	56	1
@<TRIPOS>SUBSTRUCTURE
1	noname	1
@<TRIPOS>MOLECULE
ALJORNYWGHYQOD-NRFANRHFSA-N_1_1
65 67 1
SMALL
GASTEIGER
@<TRIPOS>ATOM
1	C1     1.7618     1.0967     0.8149	C.3	1	noname	0.0355
2	O1     0.3613     1.0322     0.5866	O.3	1	noname	-0.3829
3	C2    -0.3711     1.9132     1.4424	C.3	1	noname	0.0636
4	C3    -1.8212     1.4410     1.5438	C.3	1	noname	0.0409
5	N1    -2.5097     1.4086     0.2625	N.3	1	noname	-0.3517
6	C4    -3.6350     0.6319     0.0760	C.2	1	noname	0.2474
7	O2    -4.0716    -0.0699     0.9902	O.2	1	noname	-0.2723
8	C5    -4.3909     0.7981    -1.2985	C.3	1	noname	0.1410
9	N2    -3.6301     1.5951    -2.3266	N.3	1	noname	-0.2906
10	C6    -2.7531     0.9932    -3.2608	C.2	1	noname	0.2727
11	O3    -2.3068     1.5988    -4.2457	O.2	1	noname	-0.2676
12	C7    -2.3566    -0.4305    -3.1610	C.2	1	noname	0.1368
13	S1    -1.3509    -1.0144    -1.8897	S.3	1	noname	-0.0280
14	N3    -1.1578    -2.5256    -2.6315	N.2	1	noname	-0.1844
15	C8    -1.8089    -2.4587    -3.8558	C.2	1	noname	0.1649
16	C9    -1.6785    -3.6188    -4.7997	C.2	1	noname	0.2701
17	N4    -0.8985    -4.6418    -4.3406	N.3	1	noname	-0.3642
18	O4    -2.1825    -3.6722    -5.9151	O.2	1	noname	-0.2676
19	C10    -2.4602    -1.3180    -4.1623	C.2	1	noname	0.0891
20	N5    -3.1350    -1.0487    -5.4090	N.3	1	noname	-0.3954
21	C11    -3.7423     3.0278    -2.3388	C.2	1	noname	0.0482
22	C12    -2.5931     3.7373    -2.5339	C.2	1	noname	-0.0377
23	C13    -2.5678     5.0789    -2.5899	C.2	1	noname	-0.0572
24	C14    -3.7016     5.7858    -2.4402	C.2	1	noname	-0.0507
25	C15    -3.6898     7.2867    -2.5544	C.3	1	noname	-0.0398
26	C16    -4.8493     5.1110    -2.2300	C.2	1	noname	-0.0543
27	C17    -4.8992     3.7518    -2.1696	C.2	1	noname	-0.0270
28	C18    -6.3050     3.2057    -2.0290	C.3	1	noname	-0.0377
29	C19    -5.0837    -0.4460    -1.9102	C.2	1	noname	-0.0154
30	C20    -5.0722    -1.6732    -1.3241	C.2	1	noname	-0.0527
31	C21    -5.6908    -2.7292    -1.8908	C.2	1	noname	-0.0196
32	C22    -6.3256    -2.6033    -3.0706	C.2	1	noname	0.1184
33	O5    -6.9544    -3.6997    -3.6346	O.3	1	noname	-0.4968
34	C23    -6.2057    -4.1932    -4.7471	C.3	1	noname	0.0775
35	C24    -6.3544    -1.3944    -3.6641	C.2	1	noname	-0.0196
36	C25    -5.7419    -0.3388    -3.0965	C.2	1	noname	-0.0527
37	H1     1.9993     0.6483     1.7839	H	1	noname	0.0530
38	H2     2.2688     0.5203     0.0353	H	1	noname	0.0530
39	H3     2.1191     2.1289     0.7763	H	1	noname	0.0530
40	H4     0.0622     1.9198     2.4495	H	1	noname	0.0585
41	H5    -0.3254     2.9261     1.0246	H	1	noname	0.0585
42	H6    -1.8438     0.4358     1.9785	H	1	noname	0.0515
43	H7    -2.3838     2.1103     2.2046	H	1	noname	0.0515
44	H8    -2.2893     2.1215    -0.4197	H	1	noname	0.1631
45	H9    -5.2270     1.4092    -0.9579	H	1	noname	0.0691
46	H10    -0.7012    -5.4150    -4.9616	H	1	noname	0.1595
47	H11    -0.4108    -4.5743    -3.4562	H	1	noname	0.1595
48	H12    -3.1185    -0.0678    -5.6872	H	1	noname	0.1563
49	H13    -2.8658    -1.6714    -6.1731	H	1	noname	0.1563
50	H14    -1.6345     3.2381    -2.6638	H	1	noname	0.0645
51	H15    -1.6201     5.5798    -2.7718	H	1	noname	0.0626
52	H16    -3.3066     7.7407    -1.6336	H	1	noname	0.0280
53	H17    -3.0652     7.6058    -3.3963	H	1	noname	0.0280
54	H18    -4.6925     7.6876    -2.7424	H	1	noname	0.0280
55	H19    -5.7684     5.6873    -2.1277	H	1	noname	0.0629
56	H20    -7.0514     3.8871    -2.4562	H	1	noname	0.0280
57	H21    -6.5679     3.0661    -0.9745	H	1	noname	0.0280
58	H22    -6.4431     2.2777    -2.5799	H	1	noname	0.0280
59	H23    -4.5594    -1.8550    -0.3838	H	1	noname	0.0628
60	H24    -5.6619    -3.6981    -1.4007	H	1	noname	0.0662
61	H25    -6.7371    -5.0612    -5.1472	H	1	noname	0.0669
62	H26    -6.1282    -3.4453    -5.5450	H	1	noname	0.0669
63	H27    -5.2094    -4.5189    -4.4309	H	1	noname	0.0669
64	H28    -6.8582    -1.2702    -4.6179	H	1	noname	0.0662
65	H29    -5.7703     0.6003    -3.6417	H	1	noname	0.0628
@<TRIPOS>BOND
1	1	2	1
2	2	3	1
3	3	4	1
4	4	5	1
5	5	6	1
6	6	7	2
7	8	6	1
8	8	9	1
9	9	10	1
10	10	11	2
11	10	12	1
12	12	13	1
13	13	14	1
14	14	15	2
15	15	16	1
16	16	17	1
17	16	18	2
18	15	19	1
19	12	19	2
20	19	20	1
21	9	21	1
22	21	22	2
23	22	23	1
24	23	24	2
25	24	25	1
26	24	26	1
27	26	27	2
28	21	27	1
29	27	28	1
30	8	29	1
31	29	30	2
32	30	31	1
33	31	32	2
34	32	33	1
35	33	34	1
36	32	35	1
37	35	36	2
38	29	36	1
39	1	37	1
40	1	38	1
41	1	39	1
42	3	40	1
43	3	41	1
44	4	42	1
45	4	43	1
46	5	44	1
47	8	45	1
48	17	46	1
49	17	47	1
50	20	48	1
51	20	49	1
52	22	50	1
53	23	51	1
54	25	52	1
55	25	53	1
56	25	54	1
57	26	55	1
58	28	56	1
59	28	57	1
60	28	58	1
61	30	59	1
62	31	60	1
63	34	61	1
64	34	62	1
65	34	63	1
66	35	64	1
67	36	65	1
@<TRIPOS>SUBSTRUCTURE
1	noname	1
@<TRIPOS>MOLECULE
ZOYUZDWGEJUDLA-KRWDZBQOSA-N_1_1
55 57 1
SMALL
GASTEIGER
@<TRIPOS>ATOM
1	C1     1.3595     0.5148     0.5404	C.3	1	noname	0.0355
2	O1    -0.0225     0.2004     0.6040	O.3	1	noname	-0.3829
3	C2    -0.6521     0.7659     1.7604	C.3	1	noname	0.0636
4	C3    -2.1555     0.5278     1.6213	C.3	1	noname	0.0409
5	N1    -2.6649     1.2006     0.4386	N.3	1	noname	-0.3516
6	C4    -4.0056     1.1321     0.1128	C.2	1	noname	0.2507
7	O2    -4.8581     0.7791     0.9278	O.2	1	noname	-0.2721
8	C5    -4.3669     1.5374    -1.3407	C.3	1	noname	0.1733
9	N2    -3.2239     2.1206    -2.1231	N.3	1	noname	-0.2876
10	C6    -2.8886     3.4835    -1.9599	C.2	1	noname	0.2728
11	O3    -1.8038     3.9706    -2.2876	O.2	1	noname	-0.2676
12	C7    -3.8911     4.3997    -1.3777	C.2	1	noname	0.1368
13	S1    -3.6982     4.9952     0.2302	S.3	1	noname	-0.0280
14	N3    -5.1029     5.9428     0.1206	N.2	1	noname	-0.1844
15	C8    -5.5960     5.7807    -1.1651	C.2	1	noname	0.1649
16	C9    -6.7877     6.5740    -1.5956	C.2	1	noname	0.2701
17	N4    -7.3318     7.3648    -0.6245	N.3	1	noname	-0.3642
18	O4    -7.2468     6.5508    -2.7326	O.2	1	noname	-0.2676
19	C10    -4.9483     4.9369    -1.9952	C.2	1	noname	0.0891
20	N5    -5.3247     4.6352    -3.3628	N.3	1	noname	-0.3954
21	C11    -2.4238     1.3173    -2.9750	C.2	1	noname	0.0456
22	C12    -2.0877     0.0351    -2.6768	C.2	1	noname	-0.0354
23	C13    -1.3641    -0.7204    -3.5279	C.2	1	noname	-0.0242
24	C14    -0.9557    -0.2057    -4.6973	C.2	1	noname	0.1229
25	F1    -0.2448    -0.9658    -5.5547	F	1	noname	-0.2070
26	C15    -1.2542     1.0639    -5.0136	C.2	1	noname	-0.0242
27	C16    -1.9787     1.8159    -4.1604	C.2	1	noname	-0.0354
28	C17    -5.0624     0.4001    -2.0449	C.2	1	noname	0.1363
29	C18    -6.0654     0.4386    -2.9359	C.2	1	noname	-0.0175
30	C19    -6.3438    -0.8104    -3.3339	C.2	1	noname	-0.0205
31	C20    -5.5418    -1.6766    -2.6990	C.2	1	noname	0.1007
32	C21    -5.4464    -3.1503    -2.8693	C.3	1	noname	-0.0062
33	O5    -4.6639    -1.0185    -1.7831	O.3	1	noname	-0.4636
34	H1     1.8709     0.1987     1.4543	H	1	noname	0.0530
35	H2     1.7912    -0.0289    -0.3060	H	1	noname	0.0530
36	H3     1.4965     1.5879     0.3745	H	1	noname	0.0530
37	H4    -0.2677     0.2740     2.6603	H	1	noname	0.0585
38	H5    -0.4387     1.8409     1.8119	H	1	noname	0.0585
39	H6    -2.3545    -0.5422     1.4878	H	1	noname	0.0515
40	H7    -2.7088     0.8777     2.4990	H	1	noname	0.0515
41	H8    -2.0063     1.2551    -0.3330	H	1	noname	0.1631
42	H9    -5.1215     2.3194    -1.2190	H	1	noname	0.0725
43	H10    -8.1236     7.9484    -0.8612	H	1	noname	0.1595
44	H11    -6.9416     7.4144     0.3093	H	1	noname	0.1595
45	H12    -4.5584     4.4755    -4.0127	H	1	noname	0.1563
46	H13    -6.0086     5.2967    -3.7470	H	1	noname	0.1563
47	H14    -2.3762    -0.4375    -1.7433	H	1	noname	0.0646
48	H15    -1.1154    -1.7457    -3.2704	H	1	noname	0.0654
49	H16    -0.9127     1.4760    -5.9556	H	1	noname	0.0654
50	H17    -2.2160     2.8310    -4.4639	H	1	noname	0.0646
51	H18    -6.5479     1.3364    -3.2977	H	1	noname	0.0661
52	H19    -7.0873    -1.0798    -4.0702	H	1	noname	0.0660
53	H20    -6.0684    -3.4998    -3.6988	H	1	noname	0.0312
54	H21    -5.7656    -3.6658    -1.9591	H	1	noname	0.0312
55	H22    -4.4108    -3.4357    -3.0825	H	1	noname	0.0312
@<TRIPOS>BOND
1	1	2	1
2	2	3	1
3	3	4	1
4	4	5	1
5	5	6	1
6	6	7	2
7	8	6	1
8	8	9	1
9	9	10	1
10	10	11	2
11	10	12	1
12	12	13	1
13	13	14	1
14	14	15	2
15	15	16	1
16	16	17	1
17	16	18	2
18	15	19	1
19	12	19	2
20	19	20	1
21	9	21	1
22	21	22	2
23	22	23	1
24	23	24	2
25	24	25	1
26	24	26	1
27	26	27	2
28	21	27	1
29	8	28	1
30	28	29	2
31	29	30	1
32	30	31	2
33	31	32	1
34	31	33	1
35	28	33	1
36	1	34	1
37	1	35	1
38	1	36	1
39	3	37	1
40	3	38	1
41	4	39	1
42	4	40	1
43	5	41	1
44	8	42	1
45	17	43	1
46	17	44	1
47	20	45	1
48	20	46	1
49	22	47	1
50	23	48	1
51	26	49	1
52	27	50	1
53	29	51	1
54	30	52	1
55	32	53	1
56	32	54	1
57	32	55	1
@<TRIPOS>SUBSTRUCTURE
1	noname	1
@<TRIPOS>MOLECULE
CFPDNKWQBIPRRD-PGRDOPGGSA-N_1_1
65 68 1
SMALL
GASTEIGER
@<TRIPOS>ATOM
1	C1     4.3638     7.1534    -0.8539	C.3	1	noname	-0.0394
2	C2     4.1500     5.7871    -0.2455	C.2	1	noname	-0.0461
3	C3     4.8942     5.4545     0.8353	C.2	1	noname	-0.0589
4	C4     4.7270     4.2755     1.4505	C.2	1	noname	-0.0599
5	C5     3.8131     3.4103     0.9860	C.2	1	noname	-0.0380
6	C6     3.0589     3.7008    -0.1044	C.2	1	noname	0.0484
7	N1     2.0650     2.7791    -0.5035	N.3	1	noname	-0.2906
8	C7     0.6683     3.1835    -0.0990	C.3	1	noname	0.1410
9	C8    -0.6191     2.7143    -0.8516	C.2	1	noname	0.2474
10	O1    -1.7257     3.1861    -0.5746	O.2	1	noname	-0.2723
11	N2    -0.4689     1.7914    -1.8640	N.3	1	noname	-0.3514
12	C9    -1.6438     1.3316    -2.5854	C.3	1	noname	0.0438
13	C10    -1.3362     0.5326    -3.8564	C.3	1	noname	0.0749
14	C11    -0.5531    -0.7569    -3.6282	C.3	1	noname	-0.0228
15	C12     0.7692    -0.4985    -4.3139	C.3	1	noname	-0.0271
16	C13     0.3705     0.4545    -5.4143	C.3	1	noname	0.0471
17	O2    -0.5896     1.3226    -4.8053	O.3	1	noname	-0.3764
18	C14     0.4911     3.1405     1.4301	C.2	1	noname	-0.0154
19	C15     0.5958     1.9970     2.1562	C.2	1	noname	-0.0535
20	C16     0.4567     2.0129     3.4973	C.2	1	noname	-0.0260
21	C17     0.1973     3.1692     4.1309	C.2	1	noname	0.1227
22	F1     0.0384     3.1794     5.4704	F	1	noname	-0.2070
23	C18     0.0870     4.3128     3.4352	C.2	1	noname	-0.0260
24	C19     0.2365     4.3000     2.0962	C.2	1	noname	-0.0535
25	C20     2.3542     1.4136    -0.6464	C.2	1	noname	0.2727
26	O3     1.4875     0.5380    -0.5766	O.2	1	noname	-0.2676
27	C21     3.7570     1.0028    -0.9637	C.2	1	noname	0.1368
28	S1     4.4714    -0.2282     0.0371	S.3	1	noname	-0.0280
29	N3     5.9231    -0.2052    -0.8334	N.2	1	noname	-0.1844
30	C22     5.7581     0.7012    -1.8687	C.2	1	noname	0.1649
31	C23     6.8951     0.8942    -2.8353	C.2	1	noname	0.2701
32	N4     7.8785    -0.0508    -2.7495	N.3	1	noname	-0.3642
33	O4     6.9688     1.8131    -3.6439	O.2	1	noname	-0.2676
34	C24     4.5798     1.3571    -1.9629	C.2	1	noname	0.0891
35	N5     4.2525     2.2484    -2.9982	N.3	1	noname	-0.3954
36	C25     3.2166     4.9103    -0.7254	C.2	1	noname	-0.0243
37	C26     2.4082     5.3012    -1.9536	C.3	1	noname	-0.0374
38	H1     4.9124     7.8152    -0.1738	H	1	noname	0.0280
39	H2     3.4110     7.6525    -1.0658	H	1	noname	0.0280
40	H3     4.9415     7.0696    -1.7798	H	1	noname	0.0280
41	H4     5.6338     6.1439     1.2361	H	1	noname	0.0626
42	H5     5.3114     4.0309     2.3334	H	1	noname	0.0624
43	H6     3.6681     2.4856     1.5393	H	1	noname	0.0645
44	H7     0.6323     4.2474    -0.3774	H	1	noname	0.0691
45	H8     0.2497     1.0943    -1.6848	H	1	noname	0.1631
46	H9    -2.2392     2.2124    -2.8523	H	1	noname	0.0518
47	H10    -2.2381     0.7264    -1.8903	H	1	noname	0.0518
48	H11    -2.2941     0.2910    -4.3304	H	1	noname	0.0622
49	H12    -1.0721    -1.5878    -4.1226	H	1	noname	0.0295
50	H13    -0.4438    -1.0382    -2.5770	H	1	noname	0.0295
51	H14     1.2463    -1.4076    -4.6880	H	1	noname	0.0291
52	H15     1.4570    -0.0012    -3.6183	H	1	noname	0.0291
53	H16    -0.1170    -0.0740    -6.2420	H	1	noname	0.0567
54	H17     1.2107     1.0318    -5.8096	H	1	noname	0.0567
55	H18     0.7940     1.0435     1.6756	H	1	noname	0.0628
56	H19     0.5459     1.0969     4.0737	H	1	noname	0.0654
57	H20    -0.1243     5.2413     3.9550	H	1	noname	0.0654
58	H21     0.1437     5.2417     1.5569	H	1	noname	0.0628
59	H22     8.6528    -0.0120    -3.3990	H	1	noname	0.1595
60	H23     7.8178    -0.8185    -2.0941	H	1	noname	0.1595
61	H24     5.0404     2.6268    -3.5329	H	1	noname	0.1563
62	H25     3.4899     2.9023    -2.8761	H	1	noname	0.1563
63	H26     1.6690     6.0663    -1.6912	H	1	noname	0.0281
64	H27     3.0569     5.6908    -2.7466	H	1	noname	0.0281
65	H28     1.8660     4.4637    -2.4031	H	1	noname	0.0281
@<TRIPOS>BOND
1	1	2	1
2	2	3	2
3	3	4	1
4	4	5	2
5	5	6	1
6	6	7	1
7	8	7	1
8	8	9	1
9	9	10	2
10	9	11	1
11	11	12	1
12	13	12	1
13	13	14	1
14	14	15	1
15	15	16	1
16	16	17	1
17	13	17	1
18	8	18	1
19	18	19	2
20	19	20	1
21	20	21	2
22	21	22	1
23	21	23	1
24	23	24	2
25	18	24	1
26	7	25	1
27	25	26	2
28	25	27	1
29	27	28	1
30	28	29	1
31	29	30	2
32	30	31	1
33	31	32	1
34	31	33	2
35	30	34	1
36	27	34	2
37	34	35	1
38	6	36	2
39	2	36	1
40	36	37	1
41	1	38	1
42	1	39	1
43	1	40	1
44	3	41	1
45	4	42	1
46	5	43	1
47	8	44	1
48	11	45	1
49	12	46	1
50	12	47	1
51	13	48	1
52	14	49	1
53	14	50	1
54	15	51	1
55	15	52	1
56	16	53	1
57	16	54	1
58	19	55	1
59	20	56	1
60	23	57	1
61	24	58	1
62	32	59	1
63	32	60	1
64	35	61	1
65	35	62	1
66	37	63	1
67	37	64	1
68	37	65	1
@<TRIPOS>SUBSTRUCTURE
1	noname	1
@<TRIPOS>MOLECULE
LGFHNBIFXFXLFJ-AVRDEDQJSA-N_1_1
66 69 1
SMALL
GASTEIGER
@<TRIPOS>ATOM
1	C1     3.7720     2.4530     4.4555	C.3	1	noname	-0.0394
2	C2     3.7234     2.3051     2.9546	C.2	1	noname	-0.0461
3	C3     4.5931     1.4490     2.3708	C.2	1	noname	-0.0589
4	C4     4.5867     1.2602     1.0429	C.2	1	noname	-0.0599
5	C5     3.6963     1.9163     0.2834	C.2	1	noname	-0.0380
6	C6     2.7959     2.7703     0.8380	C.2	1	noname	0.0484
7	N1     1.8220     3.3750     0.0014	N.3	1	noname	-0.2906
8	C7     0.7391     2.4329    -0.4165	C.3	1	noname	0.1410
9	C8    -0.2660     3.0307    -1.4562	C.2	1	noname	0.2474
10	O1    -0.7918     4.1373    -1.3487	O.2	1	noname	-0.2723
11	N2    -0.5104     2.1702    -2.5163	N.3	1	noname	-0.3514
12	C9    -1.3405     2.5595    -3.6409	C.3	1	noname	0.0438
13	C10    -1.5740     1.3773    -4.5962	C.3	1	noname	0.0749
14	C11    -2.3564     0.2178    -3.9878	C.3	1	noname	-0.0228
15	C12    -1.2936    -0.7987    -3.6505	C.3	1	noname	-0.0271
16	C13    -0.2661    -0.5614    -4.7322	C.3	1	noname	0.0471
17	O2    -0.2925     0.8446    -5.0071	O.3	1	noname	-0.3764
18	C14    -0.0634     1.9586     0.8117	C.2	1	noname	-0.0154
19	C15    -1.0193     2.7245     1.3999	C.2	1	noname	-0.0527
20	C16    -1.6958     2.2901     2.4816	C.2	1	noname	-0.0199
21	C17    -1.4279     1.0781     3.0078	C.2	1	noname	0.1151
22	O3    -2.0885     0.6129     4.1246	O.3	1	noname	-0.5080
23	C18    -0.4895     0.3049     2.4324	C.2	1	noname	-0.0199
24	C19     0.1797     0.7331     1.3435	C.2	1	noname	-0.0527
25	C20     2.3722     4.0954    -1.0809	C.2	1	noname	0.2727
26	O4     2.2352     3.7831    -2.2608	O.2	1	noname	-0.2676
27	C21     3.1586     5.2891    -0.6842	C.2	1	noname	0.1368
28	S1     4.8284     5.3912    -1.1247	S.3	1	noname	-0.0280
29	N3     5.0124     6.8925    -0.3579	N.2	1	noname	-0.1844
30	C22     3.7628     7.2475     0.1336	C.2	1	noname	0.1649
31	C23     3.6101     8.5785     0.8102	C.2	1	noname	0.2701
32	N4     4.7811     9.2565     1.0060	N.3	1	noname	-0.3642
33	O5     2.5344     9.0528     1.1592	O.2	1	noname	-0.2676
34	C24     2.7389     6.3832    -0.0383	C.2	1	noname	0.0891
35	N5     1.3878     6.5989     0.3872	N.3	1	noname	-0.3954
36	C25     2.8202     2.9859     2.1856	C.2	1	noname	-0.0243
37	C26     1.8762     3.9630     2.8518	C.3	1	noname	-0.0374
38	H1     4.5497     1.8236     4.9041	H	1	noname	0.0280
39	H2     2.8201     2.1432     4.8984	H	1	noname	0.0280
40	H3     3.9884     3.4865     4.7419	H	1	noname	0.0280
41	H4     5.3109     0.8938     2.9691	H	1	noname	0.0626
42	H5     5.2890     0.5695     0.5846	H	1	noname	0.0624
43	H6     3.7122     1.7275    -0.7883	H	1	noname	0.0645
44	H7     1.2204     1.5716    -0.9024	H	1	noname	0.0691
45	H8     0.2807     1.5976    -2.7929	H	1	noname	0.1631
46	H9    -0.7999     3.3596    -4.1596	H	1	noname	0.0518
47	H10    -2.2889     2.9647    -3.2693	H	1	noname	0.0518
48	H11    -2.0858     1.7498    -5.4904	H	1	noname	0.0622
49	H12    -3.0146    -0.2100    -4.7520	H	1	noname	0.0295
50	H13    -2.9870     0.4985    -3.1384	H	1	noname	0.0295
51	H14    -1.6598    -1.8284    -3.6361	H	1	noname	0.0291
52	H15    -0.8647    -0.5803    -2.6674	H	1	noname	0.0291
53	H16    -0.5191    -1.0983    -5.6538	H	1	noname	0.0567
54	H17     0.7429    -0.8543    -4.4252	H	1	noname	0.0567
55	H18    -1.2450     3.7169     1.0175	H	1	noname	0.0628
56	H19    -2.4472     2.9367     2.9219	H	1	noname	0.0662
57	H20    -2.7258     1.2605     4.4657	H	1	noname	0.2931
58	H21    -0.2631    -0.6692     2.8554	H	1	noname	0.0662
59	H22     0.9432     0.0873     0.9169	H	1	noname	0.0628
60	H23     4.7441    10.1709     1.4346	H	1	noname	0.1595
61	H24     5.6690     8.8838     0.6934	H	1	noname	0.1595
62	H25     1.1667     7.5734     0.6041	H	1	noname	0.1563
63	H26     0.6558     6.1417    -0.1566	H	1	noname	0.1563
64	H27     1.2033     3.4421     3.5396	H	1	noname	0.0281
65	H28     2.4433     4.7150     3.4125	H	1	noname	0.0281
66	H29     1.2470     4.5109     2.1482	H	1	noname	0.0281
@<TRIPOS>BOND
1	1	2	1
2	2	3	2
3	3	4	1
4	4	5	2
5	5	6	1
6	6	7	1
7	8	7	1
8	8	9	1
9	9	10	2
10	9	11	1
11	11	12	1
12	13	12	1
13	13	14	1
14	14	15	1
15	15	16	1
16	16	17	1
17	13	17	1
18	8	18	1
19	18	19	2
20	19	20	1
21	20	21	2
22	21	22	1
23	21	23	1
24	23	24	2
25	18	24	1
26	7	25	1
27	25	26	2
28	25	27	1
29	27	28	1
30	28	29	1
31	29	30	2
32	30	31	1
33	31	32	1
34	31	33	2
35	30	34	1
36	27	34	2
37	34	35	1
38	6	36	2
39	2	36	1
40	36	37	1
41	1	38	1
42	1	39	1
43	1	40	1
44	3	41	1
45	4	42	1
46	5	43	1
47	8	44	1
48	11	45	1
49	12	46	1
50	12	47	1
51	13	48	1
52	14	49	1
53	14	50	1
54	15	51	1
55	15	52	1
56	16	53	1
57	16	54	1
58	19	55	1
59	20	56	1
60	22	57	1
61	23	58	1
62	24	59	1
63	32	60	1
64	32	61	1
65	35	62	1
66	35	63	1
67	37	64	1
68	37	65	1
69	37	66	1
@<TRIPOS>SUBSTRUCTURE
1	noname	1
@<TRIPOS>MOLECULE
PFEYKUIBCNWITE-AVRDEDQJSA-N_1_1
66 69 1
SMALL
GASTEIGER
@<TRIPOS>ATOM
1	C1    -6.6812     4.9936     2.9967	C.3	1	noname	-0.0398
2	C2    -5.5088     4.3575     2.2952	C.2	1	noname	-0.0507
3	C3    -5.1544     4.7427     1.0539	C.2	1	noname	-0.0572
4	C4    -4.1184     4.1568     0.4236	C.2	1	noname	-0.0377
5	C5    -3.3907     3.1652     1.0037	C.2	1	noname	0.0482
6	N1    -2.2782     2.5487     0.3372	N.3	1	noname	-0.2906
7	C6    -1.5574     3.3779    -0.6887	C.3	1	noname	0.1410
8	C7    -0.2981     2.7307    -1.3436	C.2	1	noname	0.2474
9	O1     0.7906     2.6283    -0.7720	O.2	1	noname	-0.2723
10	N2    -0.4141     2.1703    -2.5898	N.3	1	noname	-0.3514
11	C8    -1.5123     2.3239    -3.5332	C.3	1	noname	0.0438
12	C9    -1.2769     1.5690    -4.8425	C.3	1	noname	0.0749
13	C10    -1.1525     0.0603    -4.7253	C.3	1	noname	-0.0228
14	C11    -0.4247    -0.2744    -6.0045	C.3	1	noname	-0.0271
15	C12     0.5466     0.8827    -6.1259	C.3	1	noname	0.0471
16	O2    -0.0436     2.0054    -5.4483	O.3	1	noname	-0.3764
17	C13    -1.0175     4.7034    -0.0996	C.2	1	noname	-0.0154
18	C14    -0.6260     4.8242     1.1962	C.2	1	noname	-0.0527
19	C15    -0.1370     5.9860     1.6717	C.2	1	noname	-0.0199
20	C16    -0.0246     7.0579     0.8634	C.2	1	noname	0.1151
21	O3     0.4835     8.2538     1.3265	O.3	1	noname	-0.5080
22	C17    -0.4148     6.9567    -0.4204	C.2	1	noname	-0.0199
23	C18    -0.9099     5.7975    -0.8981	C.2	1	noname	-0.0527
24	C19    -2.5359     1.2145    -0.0698	C.2	1	noname	0.2727
25	O4    -3.6501     0.8458    -0.4531	O.2	1	noname	-0.2676
26	C20    -1.3932     0.2323    -0.0540	C.2	1	noname	0.1368
27	S1    -1.5547    -1.1731    -1.0862	S.3	1	noname	-0.0280
28	N3    -0.0284    -1.7724    -0.6775	N.2	1	noname	-0.1844
29	C21     0.4950    -0.9086     0.2682	C.2	1	noname	0.1649
30	C22     1.8866    -1.1474     0.7818	C.2	1	noname	0.2701
31	N4     2.5825    -2.1289     0.1339	N.3	1	noname	-0.3642
32	O5     2.4013    -0.5062     1.6925	O.2	1	noname	-0.2676
33	C23    -0.2386     0.1675     0.6289	C.2	1	noname	0.0891
34	N5     0.2020     1.1819     1.6228	N.3	1	noname	-0.3954
35	C24    -3.7540     2.7680     2.2630	C.2	1	noname	-0.0270
36	C25    -3.0105     1.7163     3.0498	C.3	1	noname	-0.0377
37	C26    -4.8008     3.3707     2.8832	C.2	1	noname	-0.0543
38	H1    -6.4334     6.0081     3.3267	H	1	noname	0.0280
39	H2    -6.9802     4.4202     3.8820	H	1	noname	0.0280
40	H3    -7.5552     5.0395     2.3368	H	1	noname	0.0280
41	H4    -5.7050     5.5324     0.5476	H	1	noname	0.0626
42	H5    -3.9126     4.5125    -0.5772	H	1	noname	0.0645
43	H6    -2.2760     3.5905    -1.4863	H	1	noname	0.0691
44	H7     0.4833     1.9043    -2.9858	H	1	noname	0.1631
45	H8    -1.5827     3.3963    -3.7436	H	1	noname	0.0518
46	H9    -2.4420     1.9985    -3.0554	H	1	noname	0.0518
47	H10    -2.0829     1.8173    -5.5430	H	1	noname	0.0622
48	H11    -2.1180    -0.4431    -4.6319	H	1	noname	0.0295
49	H12    -0.5258    -0.2243    -3.8740	H	1	noname	0.0295
50	H13    -1.1299    -0.2608    -6.8450	H	1	noname	0.0291
51	H14     0.0748    -1.2462    -5.9922	H	1	noname	0.0291
52	H15     0.7497     1.1498    -7.1667	H	1	noname	0.0567
53	H16     1.4987     0.6616    -5.6331	H	1	noname	0.0567
54	H17    -0.6923     3.9815     1.8813	H	1	noname	0.0628
55	H18     0.1721     6.0387     2.7114	H	1	noname	0.0662
56	H19     0.7332     8.2041     2.2645	H	1	noname	0.2931
57	H20    -0.3166     7.8177    -1.0738	H	1	noname	0.0662
58	H21    -1.2027     5.7541    -1.9430	H	1	noname	0.0628
59	H22     3.5503    -2.2766     0.3868	H	1	noname	0.1595
60	H23     2.1874    -2.6444    -0.6425	H	1	noname	0.1595
61	H24     1.1168     0.9173     2.0094	H	1	noname	0.1563
62	H25     0.3931     2.0586     1.1224	H	1	noname	0.1563
63	H26    -3.1981     0.7175     2.6457	H	1	noname	0.0280
64	H27    -1.9381     1.9226     3.0597	H	1	noname	0.0280
65	H28    -3.3195     1.6960     4.1037	H	1	noname	0.0280
66	H29    -5.0847     3.0608     3.8872	H	1	noname	0.0629
@<TRIPOS>BOND
1	1	2	1
2	2	3	2
3	3	4	1
4	4	5	2
5	5	6	1
6	7	6	1
7	7	8	1
8	8	9	2
9	8	10	1
10	10	11	1
11	12	11	1
12	12	13	1
13	13	14	1
14	14	15	1
15	15	16	1
16	12	16	1
17	7	17	1
18	17	18	2
19	18	19	1
20	19	20	2
21	20	21	1
22	20	22	1
23	22	23	2
24	17	23	1
25	6	24	1
26	24	25	2
27	24	26	1
28	26	27	1
29	27	28	1
30	28	29	2
31	29	30	1
32	30	31	1
33	30	32	2
34	29	33	1
35	26	33	2
36	33	34	1
37	5	35	1
38	35	36	1
39	35	37	2
40	2	37	1
41	1	38	1
42	1	39	1
43	1	40	1
44	3	41	1
45	4	42	1
46	7	43	1
47	10	44	1
48	11	45	1
49	11	46	1
50	12	47	1
51	13	48	1
52	13	49	1
53	14	50	1
54	14	51	1
55	15	52	1
56	15	53	1
57	18	54	1
58	19	55	1
59	21	56	1
60	22	57	1
61	23	58	1
62	31	59	1
63	31	60	1
64	34	61	1
65	34	62	1
66	36	63	1
67	36	64	1
68	36	65	1
69	37	66	1
@<TRIPOS>SUBSTRUCTURE
1	noname	1
@<TRIPOS>MOLECULE
ZSRPNCBMXLBNAQ-HXUWFJFHSA-N_1_1
63 65 1
SMALL
GASTEIGER
@<TRIPOS>ATOM
1	C1    -2.3178    -3.7698     3.5837	C.3	1	noname	-0.0627
2	C2    -2.1826    -2.7354     2.4656	C.3	1	noname	-0.0455
3	C3    -3.4454    -1.8769     2.3814	C.3	1	noname	-0.0627
4	C4    -0.9115    -1.8898     2.6680	C.3	1	noname	-0.0334
5	C5    -0.6612    -0.9118     1.5147	C.3	1	noname	0.0177
6	N1     0.7529    -0.8647     1.1818	N.3	1	noname	-0.3540
7	C6     1.3625    -0.4459     0.0295	C.2	1	noname	0.2470
8	O1     2.5529    -0.1330     0.1490	O.2	1	noname	-0.2723
9	C7     0.5512    -0.2198    -1.3087	C.3	1	noname	0.1366
10	N2    -0.5417    -1.1749    -1.6480	N.3	1	noname	-0.3142
11	C8    -1.8212    -0.6462    -2.1738	C.3	1	noname	0.0802
12	C9    -1.8734     0.8203    -2.4565	C.2	1	noname	0.1227
13	C10    -1.8405     1.4518    -3.6391	C.2	1	noname	-0.0187
14	C11    -1.8966     2.7734    -3.4353	C.2	1	noname	-0.0235
15	C12    -1.9825     3.0216    -2.1228	C.2	1	noname	0.0907
16	O2    -1.9934     1.7994    -1.3336	O.3	1	noname	-0.4675
17	C13    -0.4468    -2.5667    -1.6879	C.2	1	noname	0.2686
18	O3    -1.3995    -3.2390    -2.1075	O.2	1	noname	-0.2679
19	C14     0.7265    -3.3199    -1.1722	C.2	1	noname	0.1365
20	S1     2.3547    -3.0636    -1.6826	S.3	1	noname	-0.0280
21	N3     2.9496    -4.3243    -0.7169	N.2	1	noname	-0.1844
22	C15     1.8440    -4.9588    -0.1790	C.2	1	noname	0.1649
23	C16     2.0318    -6.2230     0.6012	C.2	1	noname	0.2701
24	N4     3.3055    -6.4358     1.0433	N.3	1	noname	-0.3642
25	O4     1.1331    -7.0235     0.8341	O.2	1	noname	-0.2676
26	C17     0.6284    -4.4258    -0.4167	C.2	1	noname	0.0890
27	N5    -0.6200    -4.9730     0.0576	N.3	1	noname	-0.3954
28	C18     1.3758     0.1473    -2.5696	C.2	1	noname	-0.0160
29	C19     1.2444    -0.4793    -3.7700	C.2	1	noname	-0.0562
30	C20     1.9649    -0.1061    -4.8453	C.2	1	noname	-0.0590
31	C21     2.8520     0.9077    -4.7625	C.2	1	noname	-0.0511
32	C22     3.6665     1.3255    -5.9535	C.3	1	noname	-0.0398
33	C23     2.9706     1.5621    -3.5877	C.2	1	noname	-0.0590
34	C24     2.2432     1.1914    -2.5158	C.2	1	noname	-0.0562
35	H1    -1.4173    -4.3892     3.6598	H	1	noname	0.0233
36	H2    -3.1628    -4.4400     3.3915	H	1	noname	0.0233
37	H3    -2.4810    -3.2875     4.5528	H	1	noname	0.0233
38	H4    -2.0892    -3.2835     1.5219	H	1	noname	0.0298
39	H5    -3.4080    -1.2097     1.5134	H	1	noname	0.0233
40	H6    -4.3345    -2.5098     2.2765	H	1	noname	0.0233
41	H7    -3.5638    -1.2639     3.2811	H	1	noname	0.0233
42	H8    -0.0508    -2.5644     2.7805	H	1	noname	0.0287
43	H9    -0.9830    -1.3311     3.6105	H	1	noname	0.0287
44	H10    -1.2366    -1.1887     0.6366	H	1	noname	0.0491
45	H11    -0.9699     0.1001     1.8016	H	1	noname	0.0491
46	H12     1.3965    -0.8004     1.9648	H	1	noname	0.1630
47	H13     0.0507     0.7099    -1.0251	H	1	noname	0.0688
48	H14    -2.0618    -1.1823    -3.0995	H	1	noname	0.0579
49	H15    -2.5967    -0.9028    -1.4437	H	1	noname	0.0579
50	H16    -1.7624     0.9729    -4.6035	H	1	noname	0.0660
51	H17    -1.8738     3.5240    -4.2112	H	1	noname	0.0657
52	H18    -2.0425     3.9873    -1.6369	H	1	noname	0.1043
53	H19     3.4932    -7.2608     1.5949	H	1	noname	0.1595
54	H20     4.0473    -5.7681     0.8740	H	1	noname	0.1595
55	H21    -1.4106    -4.7966    -0.5650	H	1	noname	0.1563
56	H22    -0.5602    -5.9582     0.3264	H	1	noname	0.1563
57	H23     0.5495    -1.3008    -3.9057	H	1	noname	0.0627
58	H24     1.8241    -0.6369    -5.7832	H	1	noname	0.0626
59	H25     4.6576     0.8620    -5.9155	H	1	noname	0.0280
60	H26     3.1888     1.0351    -6.8950	H	1	noname	0.0280
61	H27     3.7918     2.4127    -5.9818	H	1	noname	0.0280
62	H28     3.6611     2.3971    -3.4960	H	1	noname	0.0626
63	H29     2.3774     1.7517    -1.5927	H	1	noname	0.0627
@<TRIPOS>BOND
1	1	2	1
2	2	3	1
3	2	4	1
4	4	5	1
5	5	6	1
6	6	7	1
7	7	8	2
8	9	7	1
9	9	10	1
10	10	11	1
11	11	12	1
12	12	13	2
13	13	14	1
14	14	15	2
15	15	16	1
16	12	16	1
17	10	17	1
18	17	18	2
19	17	19	1
20	19	20	1
21	20	21	1
22	21	22	2
23	22	23	1
24	23	24	1
25	23	25	2
26	22	26	1
27	19	26	2
28	26	27	1
29	9	28	1
30	28	29	2
31	29	30	1
32	30	31	2
33	31	32	1
34	31	33	1
35	33	34	2
36	28	34	1
37	1	35	1
38	1	36	1
39	1	37	1
40	2	38	1
41	3	39	1
42	3	40	1
43	3	41	1
44	4	42	1
45	4	43	1
46	5	44	1
47	5	45	1
48	6	46	1
49	9	47	1
50	11	48	1
51	11	49	1
52	13	50	1
53	14	51	1
54	15	52	1
55	24	53	1
56	24	54	1
57	27	55	1
58	27	56	1
59	29	57	1
60	30	58	1
61	32	59	1
62	32	60	1
63	32	61	1
64	33	62	1
65	34	63	1
@<TRIPOS>SUBSTRUCTURE
1	noname	1
@<TRIPOS>MOLECULE
TXMKWLVLYCFZAG-DNVCBOLYSA-N_1_1
59 62 1
SMALL
GASTEIGER
@<TRIPOS>ATOM
1	N1   -11.3564     1.8214    -1.2668	N.3	1	noname	-0.3642
2	C1   -10.2232     1.9585    -0.5171	C.2	1	noname	0.2701
3	O1   -10.2561     1.8914     0.7058	O.2	1	noname	-0.2676
4	C2    -8.9861     2.2095    -1.3187	C.2	1	noname	0.1649
5	N2    -9.1248     2.6228    -2.6325	N.2	1	noname	-0.1844
6	S1    -7.5635     2.9227    -3.2082	S.3	1	noname	-0.0280
7	C3    -6.8211     2.3019    -1.7788	C.2	1	noname	0.1365
8	C4    -5.3524     2.2058    -1.5512	C.2	1	noname	0.2685
9	O2    -4.9289     2.6543    -0.4767	O.2	1	noname	-0.2679
10	N3    -4.4770     1.5586    -2.4344	N.3	1	noname	-0.3165
11	C5    -3.1091     1.3750    -1.8962	C.3	1	noname	0.0565
12	C6    -1.9924     1.2717    -2.8922	C.2	1	noname	0.0240
13	C7    -1.3486     2.2906    -3.4946	C.2	1	noname	-0.0465
14	C8    -0.3379     1.8958    -4.2866	C.2	1	noname	-0.0512
15	C9    -0.1555     0.5679    -4.2894	C.2	1	noname	-0.0090
16	S2    -1.2803    -0.2877    -3.2786	S.3	1	noname	-0.1470
17	C10    -4.7466     1.1500    -3.8463	C.3	1	noname	0.1365
18	C11    -5.9881     0.2283    -4.1058	C.2	1	noname	0.2471
19	O3    -6.5682     0.1653    -5.1909	O.2	1	noname	-0.2723
20	N4    -6.3199    -0.6400    -3.0842	N.3	1	noname	-0.3514
21	C12    -7.5736    -1.3740    -3.1703	C.3	1	noname	0.0438
22	C13    -8.0287    -1.9310    -1.8195	C.3	1	noname	0.0749
23	C14    -7.7570    -3.4157    -1.6078	C.3	1	noname	-0.0228
24	C15    -6.7410    -3.4468    -0.4883	C.3	1	noname	-0.0271
25	C16    -7.0368    -2.1722     0.2627	C.3	1	noname	0.0471
26	O4    -7.3552    -1.2258    -0.7579	O.3	1	noname	-0.3764
27	C17    -4.5820     2.3297    -4.8315	C.2	1	noname	-0.0158
28	C18    -4.4692     3.6345    -4.4570	C.2	1	noname	-0.0535
29	C19    -4.3323     4.6175    -5.3695	C.2	1	noname	-0.0260
30	C20    -4.2856     4.3150    -6.6759	C.2	1	noname	0.1227
31	F1    -4.1531     5.2977    -7.5900	F	1	noname	-0.2070
32	C21    -4.3652     3.0368    -7.0754	C.2	1	noname	-0.0260
33	C22    -4.5039     2.0557    -6.1625	C.2	1	noname	-0.0535
34	C23    -7.7405     2.0383    -0.8340	C.2	1	noname	0.0890
35	N5    -7.4349     1.6090     0.4999	N.3	1	noname	-0.3954
36	H1   -11.3361     1.9304    -2.2723	H	1	noname	0.1595
37	H2   -12.2374     1.6749    -0.7965	H	1	noname	0.1595
38	H3    -2.8661     2.2042    -1.2216	H	1	noname	0.0554
39	H4    -3.1415     0.4768    -1.2664	H	1	noname	0.0554
40	H5    -1.6188     3.3320    -3.3624	H	1	noname	0.0635
41	H6     0.2774     2.5817    -4.8593	H	1	noname	0.0632
42	H7     0.6148     0.0503    -4.8455	H	1	noname	0.0740
43	H8    -3.9524     0.4365    -4.1017	H	1	noname	0.0688
44	H9    -5.9749    -0.4594    -2.1443	H	1	noname	0.1631
45	H10    -8.3385    -0.6753    -3.5335	H	1	noname	0.0518
46	H11    -7.4820    -2.1490    -3.9399	H	1	noname	0.0518
47	H12    -9.1037    -1.7473    -1.7090	H	1	noname	0.0622
48	H13    -7.4175    -3.9458    -2.5035	H	1	noname	0.0295
49	H14    -8.6842    -3.9051    -1.2823	H	1	noname	0.0295
50	H15    -5.7338    -3.4037    -0.9174	H	1	noname	0.0291
51	H16    -6.8147    -4.3381     0.1392	H	1	noname	0.0291
52	H17    -6.1861    -1.8175     0.8496	H	1	noname	0.0567
53	H18    -7.9052    -2.2729     0.9198	H	1	noname	0.0567
54	H19    -4.4885     3.9330    -3.4143	H	1	noname	0.0628
55	H20    -4.2590     5.6550    -5.0589	H	1	noname	0.0654
56	H21    -4.3212     2.8007    -8.1337	H	1	noname	0.0654
57	H22    -4.5707     1.0295    -6.5193	H	1	noname	0.0628
58	H23    -6.5306     1.9108     0.8597	H	1	noname	0.1563
59	H24    -8.1959     1.7094     1.1737	H	1	noname	0.1563
@<TRIPOS>BOND
1	1	2	1
2	2	3	2
3	2	4	1
4	4	5	2
5	5	6	1
6	6	7	1
7	7	8	1
8	8	9	2
9	8	10	1
10	10	11	1
11	11	12	1
12	12	13	2
13	13	14	1
14	14	15	2
15	15	16	1
16	12	16	1
17	17	10	1
18	17	18	1
19	18	19	2
20	18	20	1
21	20	21	1
22	22	21	1
23	22	23	1
24	23	24	1
25	24	25	1
26	25	26	1
27	22	26	1
28	17	27	1
29	27	28	2
30	28	29	1
31	29	30	2
32	30	31	1
33	30	32	1
34	32	33	2
35	27	33	1
36	7	34	2
37	4	34	1
38	34	35	1
39	1	36	1
40	1	37	1
41	11	38	1
42	11	39	1
43	13	40	1
44	14	41	1
45	15	42	1
46	17	43	1
47	20	44	1
48	21	45	1
49	21	46	1
50	22	47	1
51	23	48	1
52	23	49	1
53	24	50	1
54	24	51	1
55	25	52	1
56	25	53	1
57	28	54	1
58	29	55	1
59	32	56	1
60	33	57	1
61	35	58	1
62	35	59	1
@<TRIPOS>SUBSTRUCTURE
1	noname	1
