@<TRIPOS>MOLECULE
BZT
75 80 1
SMALL
GASTEIGER

@<TRIPOS>DICT

@<TRIPOS>ATOM
      1 C1         33.7650   20.0220   25.5250 C.ar    400 BZT         0.0000
      2 C2         32.5130   19.8220   24.8060 C.ar    400 BZT         0.0000
      3 C3         32.2970   18.7370   23.9050 C.ar    400 BZT         0.0000
      4 C4         33.3470   17.7850   23.6830 C.ar    400 BZT         0.0000
      5 C5         34.5870   17.9680   24.3810 C.ar    400 BZT         0.0000
      6 C6         34.7960   19.0760   25.2990 C.ar    400 BZT         0.0000
      7 S1         30.9280   18.3070   22.9610 S.3     400 BZT         0.0000
      8 C8         31.6080   16.9620   22.2840 C.2     400 BZT         0.0000
      9 C9         32.9560   16.7650   22.7720 C.2     400 BZT         0.0000
     10 C7         33.6140   15.4860   22.4160 C.3     400 BZT         0.0000
     11 C10        30.8400   16.0980   21.3170 C.ar    400 BZT         0.0000
     12 C12        31.3890   15.5510   20.0710 C.ar    400 BZT         0.0000
     13 C14        30.6160   14.7290   19.2290 C.ar    400 BZT         0.0000
     14 C16        29.2770   14.3970   19.5550 C.ar    400 BZT         0.0000
     15 C18        28.7310   14.9500   20.7960 C.ar    400 BZT         0.0000
     16 C20        29.4870   15.7900   21.6820 C.ar    400 BZT         0.0000
     17 O2         28.6070   13.5440   18.6160 O.3     400 BZT         0.0000
     18 C24        27.1990   13.1670   18.9140 C.3     400 BZT         0.0000
     19 C11        32.1440   14.0750   24.1600 C.ar    400 BZT         0.0000
     20 C13        33.1490   14.1010   23.1470 C.ar    400 BZT         0.0000
     21 C15        33.7250   12.8490   22.7680 C.ar    400 BZT         0.0000
     22 C32        33.2980   11.6090   23.3930 C.ar    400 BZT         0.0000
     23 C19        32.3060   11.5830   24.4050 C.ar    400 BZT         0.0000
     24 C21        31.7630   12.8570   24.7500 C.ar    400 BZT         0.0000
     25 Br1        34.1720   10.1650   22.7270 Br      400 BZT         0.0000
     26 C31        31.7800   10.3390   25.1440 C.3     400 BZT         0.0000
     27 C17        32.7180    9.3120   28.6580 C.3     400 BZT         0.0000
     28 C23        34.0360   10.0070   28.2510 C.3     400 BZT         0.0000
     29 C26        33.8030   10.0000   26.6890 C.3     400 BZT         0.0000
     30 N2         32.2900   10.1510   26.4930 N.4     400 BZT         1.0000
     31 C27        31.8960    8.9930   27.3710 C.3     400 BZT         0.0000
     32 C22        27.0730    9.9710   16.9140 C.3     400 BZT         0.0000
     33 N3         26.7050   10.7430   18.0990 N.4     400 BZT         1.0000
     34 C28        25.4860   10.0420   18.5200 C.3     400 BZT         0.0000
     35 C29        26.0470    8.6200   18.6290 C.3     400 BZT         0.0000
     36 C30        27.1490    8.5410   17.5330 C.3     400 BZT         0.0000
     37 C34        26.5260   12.2300   17.8630 C.3     400 BZT         0.0000
     38 O1         33.9720   21.0550   26.3880 O.3     400 BZT         0.0000
     39 H2         31.7082   20.5309   24.9632 H       400 BZT         0.0000
     40 H5         35.3915   17.2596   24.2193 H       400 BZT         0.0000
     41 H6         35.7448   19.1791   25.8130 H       400 BZT         0.0000
     42 H12        32.4104   15.7845   19.7932 H       400 BZT         0.0000
     43 H14        31.0526   14.3430   18.3150 H       400 BZT         0.0000
     44 H18        27.7062   14.7138   21.0587 H       400 BZT         0.0000
     45 H20        29.0505   16.1781   22.5952 H       400 BZT         0.0000
     46 H11        31.6723   14.9984   24.4759 H       400 BZT         0.0000
     47 H15        34.4921   12.8243   22.0025 H       400 BZT         0.0000
     48 H21        31.0026   12.8878   25.5220 H       400 BZT         0.0000
     49 H71        34.6802   15.6639   22.6197 H       400 BZT         0.0000
     50 H72        33.4583   15.3940   21.3310 H       400 BZT         0.0000
     51 H241       26.6248   14.1027   18.9825 H       400 BZT         0.0000
     52 H242       27.2022   12.6663   19.8934 H       400 BZT         0.0000
     53 H311       32.0526    9.4372   24.5761 H       400 BZT         0.0000
     54 H312       30.6850   10.4025   25.2277 H       400 BZT         0.0000
     55 H171       32.9470    8.3795   29.1947 H       400 BZT         0.0000
     56 H172       32.1399    9.9798   29.3136 H       400 BZT         0.0000
     57 H231       34.9191    9.4237   28.5508 H       400 BZT         0.0000
     58 H232       34.1105   11.0237   28.6643 H       400 BZT         0.0000
     59 H261       34.1443    9.0533   26.2449 H       400 BZT         0.0000
     60 H262       34.3272   10.8399   26.2096 H       400 BZT         0.0000
     61 H2         32.0180   11.0392   27.0440 H       400 BZT         0.0000
     62 H271       30.8123    8.9917   27.5597 H       400 BZT         0.0000
     63 H272       32.1902    8.0354   26.9167 H       400 BZT         0.0000
     64 H221       28.0377   10.3133   16.5112 H       400 BZT         0.0000
     65 H222       26.2993   10.0590   16.1371 H       400 BZT         0.0000
     66 H3         27.4643   10.6092   18.8553 H       400 BZT         0.0000
     67 H281       24.6938   10.1281   17.7617 H       400 BZT         0.0000
     68 H282       25.1162   10.4266   19.4819 H       400 BZT         0.0000
     69 H291       25.2541    7.8809   18.4420 H       400 BZT         0.0000
     70 H292       26.4751    8.4535   19.6285 H       400 BZT         0.0000
     71 H301       28.1382    8.3441   17.9720 H       400 BZT         0.0000
     72 H302       26.9182    7.7663   16.7869 H       400 BZT         0.0000
     73 H341       26.9470   12.4555   16.8721 H       400 BZT         0.0000
     74 H342       25.4445   12.4308   17.8562 H       400 BZT         0.0000
     75 H1         33.1093   21.4212   26.5433 H       400 BZT         0.0000
@<TRIPOS>BOND
     1    1    6 ar
     2    1    2 ar
     3    1   38 1
     4    2    3 ar
     5    3    7 1
     6    3    4 ar
     7    4    9 1
     8    4    5 ar
     9    5    6 ar
    10    7    8 1
    11    8    9 2
    12    8   11 1
    13    9   10 1
    14   10   20 1
    15   11   12 ar
    16   11   16 ar
    17   12   13 ar
    18   13   14 ar
    19   14   15 ar
    20   14   17 1
    21   15   16 ar
    22   17   18 1
    23   18   37 1
    24   19   20 ar
    25   19   24 ar
    26   20   21 ar
    27   21   22 ar
    28   22   23 ar
    29   22   25 1
    30   23   24 ar
    31   23   26 1
    32   26   30 1
    33   27   31 1
    34   27   28 1
    35   28   29 1
    36   29   30 1
    37   30   31 1
    38   32   33 1
    39   32   36 1
    40   33   37 1
    41   33   34 1
    42   34   35 1
    43   35   36 1
    44    2   39 1
    45    5   40 1
    46    6   41 1
    47   12   42 1
    48   13   43 1
    49   15   44 1
    50   16   45 1
    51   19   46 1
    52   21   47 1
    53   24   48 1
    54   10   49 1
    55   10   50 1
    56   18   51 1
    57   18   52 1
    58   26   53 1
    59   26   54 1
    60   27   55 1
    61   27   56 1
    62   28   57 1
    63   28   58 1
    64   29   59 1
    65   29   60 1
    66   30   61 1
    67   31   62 1
    68   31   63 1
    69   32   64 1
    70   32   65 1
    71   33   66 1
    72   34   67 1
    73   34   68 1
    74   35   69 1
    75   35   70 1
    76   36   71 1
    77   36   72 1
    78   37   73 1
    79   37   74 1
    80   38   75 1
@<TRIPOS>SUBSTRUCTURE
1 BZT 1
@<TRIPOS>COMMENT
0.0000



@<TRIPOS>MOLECULE
BT3
78 83 1
SMALL
GASTEIGER

@<TRIPOS>DICT

@<TRIPOS>ATOM
      1 C1         33.4480   19.8960   25.5690 C.ar    400 BT3         0.0000
      2 C2         32.0530   19.7030   25.0020 C.ar    400 BT3         0.0000
      3 C3         31.8220   18.6220   24.0210 C.ar    400 BT3         0.0000
      4 C4         32.9410   17.7380   23.5640 C.ar    400 BT3         0.0000
      5 C5         34.2890   17.9390   24.0800 C.ar    400 BT3         0.0000
      6 C6         34.5660   19.0150   25.1070 C.ar    400 BT3         0.0000
      7 S1         30.3680   18.0810   23.3160 S.3     400 BT3         0.0000
      8 C8         31.0590   16.8210   22.4140 C.2     400 BT3         0.0000
      9 C9         32.4690   16.7170   22.6820 C.2     400 BT3         0.0000
     10 C7         33.2910   15.4480   22.3640 C.3     400 BT3         0.0000
     11 C10        30.2500   15.9210   21.5560 C.ar    400 BT3         0.0000
     12 C12        30.7500   15.3620   20.2760 C.ar    400 BT3         0.0000
     13 C14        29.9390   14.3430   19.5220 C.ar    400 BT3         0.0000
     14 C16        28.5820   13.9970   20.1440 C.ar    400 BT3         0.0000
     15 N1         28.1460   14.5280   21.3830 N.ar    400 BT3         0.0000
     16 C20        28.9370   15.4650   22.0720 C.ar    400 BT3         0.0000
     17 O2         27.6760   13.4710   19.3190 O.3     400 BT3         0.0000
     18 C24        27.1040   12.2060   19.8810 C.3     400 BT3         0.0000
     19 C11        31.9650   13.9290   24.2170 C.ar    400 BT3         0.0000
     20 C13        33.0190   14.1000   23.1410 C.ar    400 BT3         0.0000
     21 C15        33.8360   12.8710   22.8000 C.ar    400 BT3         0.0000
     22 C32        33.5260   11.5300   23.4500 C.ar    400 BT3         0.0000
     23 C19        32.3800   11.4210   24.4220 C.ar    400 BT3         0.0000
     24 C21        31.6840   12.6350   24.8700 C.ar    400 BT3         0.0000
     25 O3         31.9480   10.1460   24.7340 O.3     400 BT3         0.0000
     26 C25        31.1660    9.7550   25.8950 C.3     400 BT3         0.0000
     27 C17        34.6300    9.0540   28.3820 C.3     400 BT3         0.0000
     28 C23        34.2150   10.0140   29.4540 C.3     400 BT3         0.0000
     29 C26        32.7240   10.3180   29.2800 C.3     400 BT3         0.0000
     30 N2         32.3760    9.4850   28.0870 N.4     400 BT3         1.0000
     31 C27        33.5830    9.0600   27.3000 C.3     400 BT3         0.0000
     32 C22        27.3600   11.2340   16.8950 C.3     400 BT3         0.0000
     33 N3         27.0750   10.5250   18.2100 N.4     400 BT3         1.0000
     34 C28        26.6190    9.0840   17.9700 C.3     400 BT3         0.0000
     35 C29        27.3490    8.7840   16.6560 C.3     400 BT3         0.0000
     36 C30        28.0250   10.0730   16.1740 C.3     400 BT3         0.0000
     37 C33        31.5810   10.3990   27.2200 C.3     400 BT3         0.0000
     38 C34        26.1880   11.5990   18.8030 C.3     400 BT3         0.0000
     39 O1         33.6600   20.7690   26.6200 O.3     400 BT3         0.0000
     40 H2         31.2389   20.3481   25.3119 H       400 BT3         0.0000
     41 H5         35.0996   17.3127   23.7253 H       400 BT3         0.0000
     42 H6         35.5658   19.1466   25.5048 H       400 BT3         0.0000
     43 H12        31.7051   15.6895   19.8815 H       400 BT3         0.0000
     44 H14        30.2900   13.8861   18.6038 H       400 BT3         0.0000
     45 H20        28.5747   15.8670   23.0112 H       400 BT3         0.0000
     46 H11        31.3911   14.7969   24.5210 H       400 BT3         0.0000
     47 H15        34.6487   12.9471   22.0867 H       400 BT3         0.0000
     48 H32        34.1263   10.6585   23.2149 H       400 BT3         0.0000
     49 H21        30.9648   12.5806   25.6793 H       400 BT3         0.0000
     50 H71        34.3438   15.7163   22.5363 H       400 BT3         0.0000
     51 H72        33.1348   15.2444   21.2943 H       400 BT3         0.0000
     52 H241       26.5297   12.4355   20.7907 H       400 BT3         0.0000
     53 H242       27.9210   11.5122   20.1284 H       400 BT3         0.0000
     54 H251       31.2549    8.6621   25.9824 H       400 BT3         0.0000
     55 H252       30.1214   10.0216   25.6767 H       400 BT3         0.0000
     56 H171       35.5991    9.3643   27.9642 H       400 BT3         0.0000
     57 H172       34.7206    8.0435   28.8070 H       400 BT3         0.0000
     58 H231       34.8040   10.9384   29.3619 H       400 BT3         0.0000
     59 H232       34.3972    9.5597   30.4391 H       400 BT3         0.0000
     60 H261       32.5467   11.3849   29.0794 H       400 BT3         0.0000
     61 H262       32.1400   10.0083   30.1592 H       400 BT3         0.0000
     62 H2         31.7898    8.6260   28.3785 H       400 BT3         0.0000
     63 H271       33.4482    8.0612   26.8592 H       400 BT3         0.0000
     64 H272       33.8235    9.7819   26.5056 H       400 BT3         0.0000
     65 H221       28.0385   12.0906   17.0209 H       400 BT3         0.0000
     66 H222       26.4400   11.5659   16.3916 H       400 BT3         0.0000
     67 H3         27.9922   10.4936   18.7794 H       400 BT3         0.0000
     68 H281       25.5271    9.0165   17.8547 H       400 BT3         0.0000
     69 H282       26.9443    8.4140   18.7795 H       400 BT3         0.0000
     70 H291       26.6279    8.4376   15.9010 H       400 BT3         0.0000
     71 H292       28.1083    8.0056   16.8221 H       400 BT3         0.0000
     72 H301       29.0982   10.0506   16.4144 H       400 BT3         0.0000
     73 H302       27.8949   10.1854   15.0875 H       400 BT3         0.0000
     74 H331       30.6792   10.6955   27.7758 H       400 BT3         0.0000
     75 H332       32.1934   11.2890   27.0130 H       400 BT3         0.0000
     76 H341       25.9072   12.3436   18.0435 H       400 BT3         0.0000
     77 H342       25.2789   11.1627   19.2424 H       400 BT3         0.0000
     78 H1         32.8057   21.1403   26.8063 H       400 BT3         0.0000
@<TRIPOS>BOND
     1    1    2 ar
     2    1   39 1
     3    1    6 ar
     4    2    3 ar
     5    3    4 ar
     6    3    7 1
     7    4    9 1
     8    4    5 ar
     9    5    6 ar
    10    7    8 1
    11    8    9 2
    12    8   11 1
    13    9   10 1
    14   10   20 1
    15   11   12 ar
    16   11   16 ar
    17   12   13 ar
    18   13   14 ar
    19   14   15 ar
    20   14   17 1
    21   15   16 ar
    22   17   18 1
    23   18   38 1
    24   19   20 ar
    25   19   24 ar
    26   20   21 ar
    27   21   22 ar
    28   22   23 ar
    29   23   24 ar
    30   23   25 1
    31   25   26 1
    32   26   37 1
    33   27   31 1
    34   27   28 1
    35   28   29 1
    36   29   30 1
    37   30   31 1
    38   30   37 1
    39   32   33 1
    40   32   36 1
    41   33   38 1
    42   33   34 1
    43   34   35 1
    44   35   36 1
    45    2   40 1
    46    5   41 1
    47    6   42 1
    48   12   43 1
    49   13   44 1
    50   16   45 1
    51   19   46 1
    52   21   47 1
    53   22   48 1
    54   24   49 1
    55   10   50 1
    56   10   51 1
    57   18   52 1
    58   18   53 1
    59   26   54 1
    60   26   55 1
    61   27   56 1
    62   27   57 1
    63   28   58 1
    64   28   59 1
    65   29   60 1
    66   29   61 1
    67   30   62 1
    68   31   63 1
    69   31   64 1
    70   32   65 1
    71   32   66 1
    72   33   67 1
    73   34   68 1
    74   34   69 1
    75   35   70 1
    76   35   71 1
    77   36   72 1
    78   36   73 1
    79   37   74 1
    80   37   75 1
    81   38   76 1
    82   38   77 1
    83   39   78 1
@<TRIPOS>SUBSTRUCTURE
1 BT3 1
@<TRIPOS>COMMENT
0.0000



@<TRIPOS>MOLECULE
BT2
73 78 1
SMALL
GASTEIGER

@<TRIPOS>DICT

@<TRIPOS>ATOM
      1 C1         32.7270   20.0900   25.7020 C.ar    400 BT2         0.0000
      2 C2         31.5130   19.8550   24.7810 C.ar    400 BT2         0.0000
      3 C3         31.4900   18.7490   23.7930 C.ar    400 BT2         0.0000
      4 C4         32.6270   17.8210   23.6380 C.ar    400 BT2         0.0000
      5 C5         33.8170   18.0420   24.4450 C.ar    400 BT2         0.0000
      6 C6         33.9300   19.1740   25.4980 C.ar    400 BT2         0.0000
      7 S1         30.1990   18.1930   22.8960 S.3     400 BT2         0.0000
      8 C8         30.9460   16.7770   22.2340 C.2     400 BT2         0.0000
      9 C9         32.2840   16.7060   22.7540 C.2     400 BT2         0.0000
     10 C7         33.2030   15.4390   22.5570 C.3     400 BT2         0.0000
     11 C10        30.3430   15.8000   21.2260 C.ar    400 BT2         0.0000
     12 C12        31.0810   15.2190   20.0400 C.ar    400 BT2         0.0000
     13 C14        30.5100   14.1110   19.1380 C.ar    400 BT2         0.0000
     14 C16        29.1120   13.5910   19.4500 C.ar    400 BT2         0.0000
     15 C18        28.3910   14.1650   20.6880 C.ar    400 BT2         0.0000
     16 C20        29.0110   15.2720   21.5220 C.ar    400 BT2         0.0000
     17 O2         28.4940   12.6960   18.5560 O.3     400 BT2         0.0000
     18 C24        26.9950   12.6320   18.5950 C.3     400 BT2         0.0000
     19 C11        31.7010   13.9390   24.3010 C.ar    400 BT2         0.0000
     20 C13        32.8870   14.1360   23.3870 C.ar    400 BT2         0.0000
     21 C15        33.8270   12.9340   23.2500 C.ar    400 BT2         0.0000
     22 C32        33.5630   11.5840   23.9460 C.ar    400 BT2         0.0000
     23 C19        32.2900   11.3970   24.7780 C.ar    400 BT2         0.0000
     24 C21        31.4380   12.6300   25.0020 C.ar    400 BT2         0.0000
     25 O3         31.8290   10.1480   25.2090 O.3     400 BT2         0.0000
     26 C25        31.2350   10.0350   26.5440 C.3     400 BT2         0.0000
     27 C17        34.6240    9.5130   29.8420 C.2     400 BT2         0.0000
     28 C23        35.3280    9.3810   28.4910 C.2     400 BT2         0.0000
     29 C26        34.3000    9.1300   27.4060 C.2     400 BT2         0.0000
     30 N2         32.9760    9.2540   28.1660 N.pl3   400 BT2         0.0000
     31 C27        33.0960    9.3580   29.6610 C.2     400 BT2         0.0000
     32 C22        26.0440    8.8680   17.8190 C.3     400 BT2         0.0000
     33 N3         26.4840   10.0710   18.6720 N.4     400 BT2         1.0000
     34 C28        25.7720   10.1630   20.0180 C.3     400 BT2         0.0000
     35 C29        24.5840    9.2090   19.8170 C.3     400 BT2         0.0000
     36 C30        24.6760    8.5530   18.4290 C.3     400 BT2         0.0000
     37 C33        31.7580    8.8670   27.4020 C.3     400 BT2         0.0000
     38 C34        26.3460   11.3960   17.9540 C.3     400 BT2         0.0000
     39 H1         32.7259   20.8676   26.4572 H       400 BT2         0.0000
     40 H2         30.6557   20.5139   24.8574 H       400 BT2         0.0000
     41 H5         34.6660   17.3831   24.3031 H       400 BT2         0.0000
     42 H6         34.8384   19.3110   26.0734 H       400 BT2         0.0000
     43 H12        32.0681   15.6052   19.8128 H       400 BT2         0.0000
     44 H14        31.0831   13.7135   18.3082 H       400 BT2         0.0000
     45 H18        27.4214   13.7694   20.9681 H       400 BT2         0.0000
     46 H20        28.4534   15.6810   22.3568 H       400 BT2         0.0000
     47 H11        31.0169   14.7650   24.4582 H       400 BT2         0.0000
     48 H15        34.7155   13.0372   22.6376 H       400 BT2         0.0000
     49 H32        34.2739   10.7717   23.8473 H       400 BT2         0.0000
     50 H21        30.6059   12.5686   25.6940 H       400 BT2         0.0000
     51 H17        35.1229    9.6894   30.7881 H       400 BT2         0.0000
     52 H23        36.3979    9.4555   28.3335 H       400 BT2         0.0000
     53 H26        34.4613    8.9163   26.3556 H       400 BT2         0.0000
     54 H27        32.3166    9.3314   30.4139 H       400 BT2         0.0000
     55 H71        34.2300   15.7417   22.8091 H       400 BT2         0.0000
     56 H72        33.1524   15.1647   21.4929 H       400 BT2         0.0000
     57 H241       26.6187   13.5264   18.0769 H       400 BT2         0.0000
     58 H242       26.6963   12.6683   19.6531 H       400 BT2         0.0000
     59 H251       30.1504    9.9199   26.4009 H       400 BT2         0.0000
     60 H252       31.4377   10.9831   27.0637 H       400 BT2         0.0000
     61 H221       26.7365    8.0203   17.9277 H       400 BT2         0.0000
     62 H222       25.9570    9.1363   16.7558 H       400 BT2         0.0000
     63 H3         27.5344    9.9343   18.8825 H       400 BT2         0.0000
     64 H281       25.4332   11.1900   20.2190 H       400 BT2         0.0000
     65 H282       26.4245    9.8254   20.8367 H       400 BT2         0.0000
     66 H291       23.6438    9.7750   19.8928 H       400 BT2         0.0000
     67 H292       24.6061    8.4293   20.5926 H       400 BT2         0.0000
     68 H301       24.5592    7.4635   18.5255 H       400 BT2         0.0000
     69 H302       23.8834    8.9505   17.7780 H       400 BT2         0.0000
     70 H331       32.0144    8.0165   26.7533 H       400 BT2         0.0000
     71 H332       30.9841    8.5596   28.1207 H       400 BT2         0.0000
     72 H341       26.7875   11.2669   16.9548 H       400 BT2         0.0000
     73 H342       25.2690   11.5970   17.8558 H       400 BT2         0.0000
@<TRIPOS>BOND
     1    1    6 ar
     2    1    2 ar
     3    2    3 ar
     4    3    7 1
     5    3    4 ar
     6    4    5 ar
     7    4    9 1
     8    5    6 ar
     9    7    8 1
    10    8    9 2
    11    8   11 1
    12    9   10 1
    13   10   20 1
    14   11   16 ar
    15   11   12 ar
    16   12   13 ar
    17   13   14 ar
    18   14   15 ar
    19   14   17 1
    20   15   16 ar
    21   17   18 1
    22   18   38 1
    23   19   20 ar
    24   19   24 ar
    25   20   21 ar
    26   21   22 ar
    27   22   23 ar
    28   23   24 ar
    29   23   25 1
    30   25   26 1
    31   26   37 1
    32   27   28 1
    33   27   31 2
    34   28   29 2
    35   29   30 1
    36   30   37 1
    37   30   31 1
    38   32   33 1
    39   32   36 1
    40   33   38 1
    41   33   34 1
    42   34   35 1
    43   35   36 1
    44    1   39 1
    45    2   40 1
    46    5   41 1
    47    6   42 1
    48   12   43 1
    49   13   44 1
    50   15   45 1
    51   16   46 1
    52   19   47 1
    53   21   48 1
    54   22   49 1
    55   24   50 1
    56   27   51 1
    57   28   52 1
    58   29   53 1
    59   31   54 1
    60   10   55 1
    61   10   56 1
    62   18   57 1
    63   18   58 1
    64   26   59 1
    65   26   60 1
    66   32   61 1
    67   32   62 1
    68   33   63 1
    69   34   64 1
    70   34   65 1
    71   35   66 1
    72   35   67 1
    73   36   68 1
    74   36   69 1
    75   37   70 1
    76   37   71 1
    77   38   72 1
    78   38   73 1
@<TRIPOS>SUBSTRUCTURE
1 BT2 1
@<TRIPOS>COMMENT
0.0000



@<TRIPOS>MOLECULE
BT1
71 76 1
SMALL
GASTEIGER

@<TRIPOS>DICT

@<TRIPOS>ATOM
      1 C1         32.5160   20.3180   25.4580 C.ar    400 BT1         0.0000
      2 C2         31.1450   19.8890   24.8560 C.ar    400 BT1         0.0000
      3 C3         31.0180   18.6550   24.0560 C.ar    400 BT1         0.0000
      4 C4         32.1780   17.7810   23.7470 C.ar    400 BT1         0.0000
      5 C5         33.4860   18.1580   24.2360 C.ar    400 BT1         0.0000
      6 C6         33.7210   19.4400   25.1340 C.ar    400 BT1         0.0000
      7 S1         29.6140   17.9610   23.4750 S.3     400 BT1         0.0000
      8 C8         30.3240   16.5980   22.7180 C.2     400 BT1         0.0000
      9 C9         31.7330   16.6070   23.0340 C.2     400 BT1         0.0000
     10 C7         32.5640   15.4630   22.8930 C.2     400 BT1         0.0000
     11 C10        29.6060   15.6620   21.7600 C.ar    400 BT1         0.0000
     12 C12        28.2340   15.2580   22.1140 C.ar    400 BT1         0.0000
     13 C14        27.4560   14.1870   21.3710 C.ar    400 BT1         0.0000
     14 C16        28.0970   13.4810   20.1750 C.ar    400 BT1         0.0000
     15 C18        29.4940   13.9490   19.7370 C.ar    400 BT1         0.0000
     16 C20        30.2110   15.0440   20.5530 C.ar    400 BT1         0.0000
     17 O2         27.4520   12.4570   19.4420 O.3     400 BT1         0.0000
     18 C24        26.3250   11.7110   20.0470 C.3     400 BT1         0.0000
     19 C11        33.2800   12.8950   23.0040 C.ar    400 BT1         0.0000
     20 C13        32.3350   14.0460   23.4220 C.ar    400 BT1         0.0000
     21 C15        31.2110   13.6710   24.4130 C.ar    400 BT1         0.0000
     22 N1         31.0640   12.3840   24.9370 N.ar    400 BT1         0.0000
     23 C19        31.9720   11.2630   24.6790 C.ar    400 BT1         0.0000
     24 C21        33.1200   11.5140   23.6770 C.ar    400 BT1         0.0000
     25 O3         31.8510    9.9600   25.2490 O.3     400 BT1         0.0000
     26 C25        31.3120    9.9530   26.6170 C.3     400 BT1         0.0000
     27 C17        34.1600   10.4420   29.1190 C.3     400 BT1         0.0000
     28 C23        34.8420    9.2380   28.5120 C.3     400 BT1         0.0000
     29 C26        33.7830    8.3050   27.9280 C.3     400 BT1         0.0000
     30 N2         32.4800    8.7870   28.5390 N.4     400 BT1         1.0000
     31 C27        32.6580   10.1980   29.0870 C.3     400 BT1         0.0000
     32 C22        24.3820    8.8580   18.2800 C.2     400 BT1         0.0000
     33 N3         25.5310    9.7920   18.5780 N.pl3   400 BT1         0.0000
     34 C28        26.8320    9.4060   17.8990 C.2     400 BT1         0.0000
     35 C29        26.4960    8.1030   17.1760 C.2     400 BT1         0.0000
     36 C30        24.9990    7.8350   17.3180 C.2     400 BT1         0.0000
     37 C33        31.5110    8.6380   27.3870 C.3     400 BT1         0.0000
     38 C34        25.3000   11.1980   19.0190 C.3     400 BT1         0.0000
     39 O1         33.6060   15.6780   22.2640 O.2     400 BT1         0.0000
     40 H1         32.6099   21.2011   26.0795 H       400 BT1         0.0000
     41 H2         30.2705   20.5063   25.0272 H       400 BT1         0.0000
     42 H5         34.3376   17.5391   23.9777 H       400 BT1         0.0000
     43 H6         34.7082   19.6868   25.5075 H       400 BT1         0.0000
     44 H12        27.7540   15.7526   22.9507 H       400 BT1         0.0000
     45 H14        26.4526   13.9242   21.6860 H       400 BT1         0.0000
     46 H18        29.9696   13.5147   18.8651 H       400 BT1         0.0000
     47 H20        31.1927   15.3746   20.2336 H       400 BT1         0.0000
     48 H11        34.0427   13.0551   22.2505 H       400 BT1         0.0000
     49 H15        30.5070   14.4382   24.7145 H       400 BT1         0.0000
     50 H21        33.8170   10.7170   23.4448 H       400 BT1         0.0000
     51 H22        23.3660    8.9004   18.6556 H       400 BT1         0.0000
     52 H28        27.7793    9.9324   17.9217 H       400 BT1         0.0000
     53 H29        27.2032    7.4726   16.6492 H       400 BT1         0.0000
     54 H30        24.4557    7.0429   16.8157 H       400 BT1         0.0000
     55 H241       25.8224   12.3866   20.7548 H       400 BT1         0.0000
     56 H242       26.7492   10.8563   20.5943 H       400 BT1         0.0000
     57 H251       30.2354   10.1655   26.5405 H       400 BT1         0.0000
     58 H252       31.8087   10.7683   27.1634 H       400 BT1         0.0000
     59 H171       34.4072   11.3413   28.5357 H       400 BT1         0.0000
     60 H172       34.4972   10.5745   30.1576 H       400 BT1         0.0000
     61 H231       35.4131    8.7116   29.2909 H       400 BT1         0.0000
     62 H232       35.5258    9.5691   27.7165 H       400 BT1         0.0000
     63 H261       33.9813    7.2610   28.2119 H       400 BT1         0.0000
     64 H262       33.7506    8.3869   26.8315 H       400 BT1         0.0000
     65 H2         32.1918    8.1243   29.3416 H       400 BT1         0.0000
     66 H271       32.1651   10.9299   28.4302 H       400 BT1         0.0000
     67 H272       32.2363   10.2723   30.1003 H       400 BT1         0.0000
     68 H331       31.9037    7.8744   26.6994 H       400 BT1         0.0000
     69 H332       30.5422    8.3062   27.7888 H       400 BT1         0.0000
     70 H341       25.3386   11.8373   18.1247 H       400 BT1         0.0000
     71 H342       24.2940   11.2465   19.4612 H       400 BT1         0.0000
@<TRIPOS>BOND
     1    1    6 ar
     2    1    2 ar
     3    2    3 ar
     4    3    7 1
     5    3    4 ar
     6    4    9 1
     7    4    5 ar
     8    5    6 ar
     9    7    8 1
    10    8    9 2
    11    8   11 1
    12    9   10 1
    13   10   39 2
    14   10   20 1
    15   11   12 ar
    16   11   16 ar
    17   12   13 ar
    18   13   14 ar
    19   14   15 ar
    20   14   17 1
    21   15   16 ar
    22   17   18 1
    23   18   38 1
    24   19   20 ar
    25   19   24 ar
    26   20   21 ar
    27   21   22 ar
    28   22   23 ar
    29   23   24 ar
    30   23   25 1
    31   25   26 1
    32   26   37 1
    33   27   28 1
    34   27   31 1
    35   28   29 1
    36   29   30 1
    37   30   37 1
    38   30   31 1
    39   32   33 1
    40   32   36 2
    41   33   34 1
    42   33   38 1
    43   34   35 2
    44   35   36 1
    45    1   40 1
    46    2   41 1
    47    5   42 1
    48    6   43 1
    49   12   44 1
    50   13   45 1
    51   15   46 1
    52   16   47 1
    53   19   48 1
    54   21   49 1
    55   24   50 1
    56   32   51 1
    57   34   52 1
    58   35   53 1
    59   36   54 1
    60   18   55 1
    61   18   56 1
    62   26   57 1
    63   26   58 1
    64   27   59 1
    65   27   60 1
    66   28   61 1
    67   28   62 1
    68   29   63 1
    69   29   64 1
    70   30   65 1
    71   31   66 1
    72   31   67 1
    73   37   68 1
    74   37   69 1
    75   38   70 1
    76   38   71 1
@<TRIPOS>SUBSTRUCTURE
1 BT1 1
@<TRIPOS>COMMENT
0.0000



@<TRIPOS>MOLECULE
BEN
18 18 1
SMALL
GASTEIGER

@<TRIPOS>DICT

@<TRIPOS>ATOM
      1 C1         32.5200   19.0620   24.7790 C.ar      1 BEN         0.0000
      2 C2         31.3510   18.4070   24.3940 C.ar      1 BEN         0.0000
      3 C3         31.4000   17.4500   23.3680 C.ar      1 BEN         0.0000
      4 C4         32.6240   17.1690   22.7300 C.ar      1 BEN         0.0000
      5 C5         33.7940   17.8210   23.1360 C.ar      1 BEN         0.0000
      6 C6         33.7570   18.7810   24.1540 C.ar      1 BEN         0.0000
      7 C          32.4820   20.0620   25.8580 C.2       1 BEN         0.0000
      8 N1         31.3180   20.3830   26.5150 N.pl3     1 BEN         0.5000
      9 N2         33.5940   20.7380   26.2520 N.pl3     1 BEN         0.5000
     10 H2         30.4110   18.6350   24.8834 H         1 BEN         0.0000
     11 H3         30.4983   16.9287   23.0676 H         1 BEN         0.0000
     12 H4         32.6598   16.4463   21.9229 H         1 BEN         0.0000
     13 H5         34.7368   17.5805   22.6581 H         1 BEN         0.0000
     14 H6         34.6594   19.2992   24.4575 H         1 BEN         0.0000
     15 H11        31.3254   21.0980   27.2563 H         1 BEN         0.0000
     16 H12        30.4384   19.9085   26.2660 H         1 BEN         0.0000
     17 H21        33.5304   21.4418   27.0014 H         1 BEN         0.0000
     18 H22        34.5000   20.5463   25.8011 H         1 BEN         0.0000
@<TRIPOS>BOND
     1    1    2 ar
     2    1    6 ar
     3    1    7 1
     4    2    3 ar
     5    3    4 ar
     6    4    5 ar
     7    5    6 ar
     8    7    8 ar
     9    7    9 ar
    10    2   10 1
    11    3   11 1
    12    4   12 1
    13    5   13 1
    14    6   14 1
    15    8   15 1
    16    8   16 1
    17    9   17 1
    18    9   18 1
@<TRIPOS>SUBSTRUCTURE
1 BEN 1
@<TRIPOS>COMMENT
0.0000



@<TRIPOS>MOLECULE
MIT
71 73 1
SMALL
GASTEIGER

@<TRIPOS>DICT

@<TRIPOS>ATOM
      1 S          28.7520   13.5130   25.6380 S.o2      1 MIT         0.0000
      2 O1         28.5540   13.6490   27.0570 O.2       1 MIT         0.0000
      3 O2         27.6690   13.3990   24.6800 O.2       1 MIT         0.0000
      4 C1         31.7960   11.7570   28.2400 C.3       1 MIT         0.0000
      5 C2         32.8640   10.9560   27.6000 C.3       1 MIT         0.0000
      6 C3         32.2630    9.8270   26.8440 C.3       1 MIT         0.0000
      7 C4         31.3110   10.3570   25.8650 C.ar      1 MIT         0.0000
      8 C5         31.0580    9.6760   24.6800 C.ar      1 MIT         0.0000
      9 C6         30.1090   10.2040   23.8000 C.ar      1 MIT         0.0000
     10 C7         29.3790   11.3580   24.1210 C.ar      1 MIT         0.0000
     11 C8         29.5620   11.9600   25.3330 C.ar      1 MIT         0.0000
     12 C9         30.5960   11.5460   26.2180 C.ar      1 MIT         0.0000
     13 C10        33.7940   10.4240   28.6730 C.3       1 MIT         0.0000
     14 N          30.8260   12.2470   27.3000 N.pl3     1 MIT         0.0000
     15 N1         29.7320   14.8200   25.1830 N.am      1 MIT         0.0000
     16 CA         30.4930   14.8340   23.9360 C.3       1 MIT         0.0000
     17 C          31.8340   14.1520   24.1210 C.2       1 MIT         0.0000
     18 O          32.5200   14.2960   25.1110 O.2       1 MIT         0.0000
     19 CB         30.7090   16.2410   23.4460 C.3       1 MIT         0.0000
     20 CG         30.9130   17.1700   24.5960 C.3       1 MIT         0.0000
     21 CD         31.3610   18.5140   24.0090 C.3       1 MIT         0.0000
     22 NE         31.5800   19.5010   25.0670 N.pl3     1 MIT         0.5000
     23 CZ         32.8380   19.8780   25.3590 C.cat     1 MIT         0.0000
     24 NH1        33.8690   19.3020   24.6870 N.pl3     1 MIT         0.5000
     25 NH2        33.0480   20.7010   26.4060 N.pl3     1 MIT         0.5000
     26 N2         32.3370   13.5310   23.0090 N.am      1 MIT         0.0000
     27 C11        31.6320   13.5940   21.7350 C.3       1 MIT         0.0000
     28 C21        31.5630   12.2080   21.0910 C.3       1 MIT         0.0000
     29 C31        32.9310   11.6240   21.0310 C.3       1 MIT         0.0000
     30 C41        33.5710   11.5970   22.4090 C.3       1 MIT         0.0000
     31 C51        33.6280   12.9300   23.0790 C.3       1 MIT         0.0000
     32 C61        32.2420   14.6520   20.8170 C.2       1 MIT         0.0000
     33 O11        31.8780   14.5770   19.6490 O.co2     1 MIT        -0.5000
     34 O21        32.5180   15.7230   21.3050 O.co2     1 MIT        -0.5000
     35 C71        32.8000   10.2190   20.4830 C.3       1 MIT         0.0000
     36 H5         31.5838    8.7579   24.4441 H         1 MIT         0.0000
     37 H6         29.9336    9.7117   22.8503 H         1 MIT         0.0000
     38 H7         28.6724   11.7703   23.4098 H         1 MIT         0.0000
     39 H11        32.2462   12.6239   28.7458 H         1 MIT         0.0000
     40 H12        31.2687   11.1349   28.9782 H         1 MIT         0.0000
     41 H2         33.4383   11.5931   26.9113 H         1 MIT         0.0000
     42 H31        31.7354    9.1536   27.5355 H         1 MIT         0.0000
     43 H32        33.0512    9.2683   26.3181 H         1 MIT         0.0000
     44 H101       34.5338   11.1956   28.9325 H         1 MIT         0.0000
     45 H102       33.2097   10.1608   29.5671 H         1 MIT         0.0000
     46 H103       34.3131    9.5297   28.2978 H         1 MIT         0.0000
     47 HA         29.9300   14.2828   23.1684 H         1 MIT         0.0000
     48 HB1        29.8285   16.5674   22.8732 H         1 MIT         0.0000
     49 HB2        31.5984   16.2700   22.7994 H         1 MIT         0.0000
     50 HG1        31.6846   16.7634   25.2663 H         1 MIT         0.0000
     51 HG2        29.9694   17.2842   25.1498 H         1 MIT         0.0000
     52 HD1        30.5887   18.9057   23.3306 H         1 MIT         0.0000
     53 HD2        32.3045   18.3892   23.4574 H         1 MIT         0.0000
     54 H11        30.5966   13.9045   21.9387 H         1 MIT         0.0000
     55 H211       31.1628   12.2862   20.0694 H         1 MIT         0.0000
     56 H212       30.9179   11.5464   21.6878 H         1 MIT         0.0000
     57 H31        33.5580   12.2213   20.3527 H         1 MIT         0.0000
     58 H411       34.6007   11.2223   22.3127 H         1 MIT         0.0000
     59 H412       32.9927   10.9186   23.0535 H         1 MIT         0.0000
     60 H511       33.9098   12.8196   24.1365 H         1 MIT         0.0000
     61 H512       34.3515   13.5864   22.5734 H         1 MIT         0.0000
     62 H711       33.8009    9.7824   20.3503 H         1 MIT         0.0000
     63 H712       32.2218    9.6031   21.1875 H         1 MIT         0.0000
     64 H713       32.2821   10.2506   19.5130 H         1 MIT         0.0000
     65 H          30.3232   13.1291   27.4732 H         1 MIT         0.0000
     66 H1         29.7913   15.6114   25.7915 H         1 MIT         0.0000
     67 HE         30.7822   19.9014   25.5809 H         1 MIT         0.0000
     68 HH11       34.8401   19.4903   24.9741 H         1 MIT         0.0000
     69 HH12       33.6794   18.6771   23.8905 H         1 MIT         0.0000
     70 HH21       34.0089   20.9068   26.7147 H         1 MIT         0.0000
     71 HH22       32.2476   21.1240   26.8972 H         1 MIT         0.0000
@<TRIPOS>BOND
     1    1    2 2
     2    1    3 2
     3    1   15 1
     4    1   11 1
     5    4    5 1
     6    4   14 1
     7    5   13 1
     8    5    6 1
     9    6    7 1
    10    7    8 ar
    11    7   12 ar
    12    8    9 ar
    13    9   10 ar
    14   10   11 ar
    15   11   12 ar
    16   12   14 1
    17   15   16 1
    18   16   17 1
    19   16   19 1
    20   17   18 2
    21   17   26 am
    22   19   20 1
    23   20   21 1
    24   21   22 1
    25   22   23 ar
    26   23   24 ar
    27   23   25 ar
    28   26   31 1
    29   26   27 1
    30   27   28 1
    31   27   32 1
    32   28   29 1
    33   29   30 1
    34   29   35 1
    35   30   31 1
    36   32   33 ar
    37   32   34 ar
    38    8   36 1
    39    9   37 1
    40   10   38 1
    41    4   39 1
    42    4   40 1
    43    5   41 1
    44    6   42 1
    45    6   43 1
    46   13   44 1
    47   13   45 1
    48   13   46 1
    49   16   47 1
    50   19   48 1
    51   19   49 1
    52   20   50 1
    53   20   51 1
    54   21   52 1
    55   21   53 1
    56   27   54 1
    57   28   55 1
    58   28   56 1
    59   29   57 1
    60   30   58 1
    61   30   59 1
    62   31   60 1
    63   31   61 1
    64   35   62 1
    65   35   63 1
    66   35   64 1
    67   14   65 1
    68   15   66 1
    69   22   67 1
    70   24   68 1
    71   24   69 1
    72   25   70 1
    73   25   71 1
@<TRIPOS>SUBSTRUCTURE
1 MIT 1
@<TRIPOS>COMMENT
0.0000



@<TRIPOS>MOLECULE
MID
69 72 1
PROTEIN
GASTEIGER

@<TRIPOS>DICT

@<TRIPOS>ATOM
      1 S          29.2270   12.4760   27.0360 S.o2      1 MID         0.0000
      2 O1S        28.2480   11.8830   26.1570 O.2       1 MID         0.0000
      3 O2S        28.9470   12.8480   28.4120 O.2       1 MID         0.0000
      4 C1         31.6050   11.4610   27.9200 C.ar      1 MID         0.0000
      5 C2         30.5190   11.2930   27.1150 C.ar      1 MID         0.0000
      6 C3         30.3810   10.1790   26.2950 C.ar      1 MID         0.0000
      7 C4         31.3310    9.1960   26.2810 C.ar      1 MID         0.0000
      8 C5         33.4280    8.2780   27.1040 C.ar      1 MID         0.0000
      9 C6         34.5490    8.4190   27.8670 C.ar      1 MID         0.0000
     10 C7         34.7160    9.5880   28.6710 C.ar      1 MID         0.0000
     11 C8         33.7640   10.6020   28.6900 C.ar      1 MID         0.0000
     12 C9         32.6130   10.4690   27.9050 C.ar      1 MID         0.0000
     13 C10        32.4480    9.3030   27.1170 C.ar      1 MID         0.0000
     14 N          29.8810   13.7730   26.2860 N.am      1 MID         0.0000
     15 CA         29.9460   13.7750   24.8630 C.3       1 MID         0.0000
     16 C          31.3100   14.0590   24.4570 C.2       1 MID         0.0000 BACKBONE
     17 O          32.2790   14.1370   25.2210 O.2       1 MID         0.0000 BACKBONE
     18 N1         31.4130   14.2740   23.1220 N.am      1 MID         0.0000 BACKBONE
     19 CA1        32.7030   14.5570   22.4730 C.3       1 MID         0.0000 BACKBONE
     20 CB         32.8840   13.4900   21.4490 C.2       1 MID         0.0000 BACKBONE
     21 O1         32.6540   13.6150   20.2420 O.2       1 MID         0.0000 BACKBONE
     22 CB1        32.6430   15.9100   21.7780 C.3       1 MID         0.0000
     23 CG         32.6010   16.9660   22.7950 C.ar      1 MID         0.0000
     24 CD1        33.7650   17.4790   23.3000 C.ar      1 MID         0.0000
     25 CD2        31.3890   17.3810   23.2810 C.ar      1 MID         0.0000
     26 CE1        33.7110   18.4960   24.2720 C.ar      1 MID         0.0000
     27 CE2        31.3120   18.3880   24.2460 C.ar      1 MID         0.0000
     28 CZ         32.4780   18.9470   24.7370 C.ar      1 MID         0.0000
     29 CF         32.4120   19.9840   25.7750 C.2       1 MID         0.0000
     30 NG1        31.2340   20.4550   26.2240 N.pl3     1 MID         0.5000
     31 NG2        33.4720   20.7610   26.0360 N.pl3     1 MID         0.5000
     32 N11        33.3700   12.3000   21.9990 N.am      1 MID         0.0000 BACKBONE
     33 C21        33.6490   12.2100   23.4450 C.3       1 MID         0.0000
     34 C31        32.9350   11.0070   24.0720 C.3       1 MID         0.0000
     35 C41        33.2090    9.7300   23.2510 C.3       1 MID         0.0000
     36 C51        32.8230    9.9380   21.7560 C.3       1 MID         0.0000
     37 C61        33.5820   11.1290   21.1550 C.3       1 MID         0.0000
     38 H1         31.6945   12.3338   28.5566 H         1 MID         0.0000
     39 H3         29.5085   10.0885   25.6582 H         1 MID         0.0000
     40 H4         31.2197    8.3391   25.6264 H         1 MID         0.0000
     41 H5         33.2874    7.3927   26.4945 H         1 MID         0.0000
     42 H6         35.3103    7.6474   27.8636 H         1 MID         0.0000
     43 H7         35.6064    9.6872   29.2812 H         1 MID         0.0000
     44 H8         33.9115   11.4829   29.3042 H         1 MID         0.0000
     45 HD1        34.7218   17.1049   22.9540 H         1 MID         0.0000
     46 HD2        30.4788   16.9223   22.9121 H         1 MID         0.0000
     47 HE1        34.6276   18.9274   24.6579 H         1 MID         0.0000
     48 HE2        30.3479   18.7280   24.6065 H         1 MID         0.0000
     49 HA1        29.2680   14.5468   24.4699 H         1 MID         0.0000
     50 HA2        29.6382   12.7892   24.4843 H         1 MID         0.0000
     51 HA1        33.5249   14.5395   23.2039 H         1 MID         0.0000 BACKBONE
     52 HB11       31.7391   15.9802   21.1551 H         1 MID         0.0000
     53 HB12       33.5337   16.0569   21.1495 H         1 MID         0.0000
     54 H211       33.3031   13.1394   23.9209 H         1 MID         0.0000
     55 H212       34.7362   12.1114   23.5804 H         1 MID         0.0000
     56 H311       31.8526   11.2017   24.0930 H         1 MID         0.0000
     57 H312       33.3022   10.8658   25.0993 H         1 MID         0.0000
     58 H411       32.6155    8.9034   23.6686 H         1 MID         0.0000
     59 H412       34.2790    9.4845   23.3200 H         1 MID         0.0000
     60 H511       31.7428   10.1316   21.6806 H         1 MID         0.0000
     61 H512       33.0740    9.0326   21.1840 H         1 MID         0.0000
     62 H611       34.6608   10.9187   21.1118 H         1 MID         0.0000
     63 H612       33.2116   11.3539   20.1440 H         1 MID         0.0000
     64 H          30.2278   14.5479   26.8145 H         1 MID         0.0000
     65 H1         30.5861   14.2391   22.5608 H         1 MID         0.0000 BACKBONE
     66 HG11       31.1965   21.3529   26.7273 H         1 MID         0.0000
     67 HG12       30.3699   19.9176   26.0644 H         1 MID         0.0000
     68 HG21       33.3479   21.6470   26.5465 H         1 MID         0.0000
     69 HG22       34.4109   20.4723   25.7262 H         1 MID         0.0000
@<TRIPOS>BOND
     1    1    2 2
     2    1    5 1
     3    1   14 1
     4    1    3 2
     5    4    5 ar
     6    4   12 ar
     7    5    6 ar
     8    6    7 ar
     9    7   13 ar
    10    8   13 ar
    11    8    9 ar
    12    9   10 ar
    13   10   11 ar
    14   11   12 ar
    15   12   13 ar
    16   14   15 1
    17   15   16 1
    18   16   17 2 BACKBONE
    19   16   18 am BACKBONE
    20   18   19 1 BACKBONE
    21   19   20 1 BACKBONE
    22   19   22 1
    23   20   21 2 BACKBONE
    24   20   32 am BACKBONE
    25   22   23 1
    26   23   24 ar
    27   23   25 ar
    28   24   26 ar
    29   25   27 ar
    30   26   28 ar
    31   27   28 ar
    32   28   29 1
    33   29   30 ar
    34   29   31 ar
    35   32   33 1
    36   32   37 1
    37   33   34 1
    38   34   35 1
    39   35   36 1
    40   36   37 1
    41    4   38 1
    42    6   39 1
    43    7   40 1
    44    8   41 1
    45    9   42 1
    46   10   43 1
    47   11   44 1
    48   24   45 1
    49   25   46 1
    50   26   47 1
    51   27   48 1
    52   15   49 1
    53   15   50 1
    54   19   51 1 BACKBONE
    55   22   52 1
    56   22   53 1
    57   33   54 1
    58   33   55 1
    59   34   56 1
    60   34   57 1
    61   35   58 1
    62   35   59 1
    63   36   60 1
    64   36   61 1
    65   37   62 1
    66   37   63 1
    67   14   64 1
    68   18   65 1 BACKBONE
    69   30   66 1
    70   30   67 1
    71   31   68 1
    72   31   69 1
@<TRIPOS>SUBSTRUCTURE
1 MID 1
@<TRIPOS>COMMENT
0.0000



@<TRIPOS>MOLECULE
C04221783
 61 63 0 0 0
SMALL
GASTEIGER

@<TRIPOS>ATOM
      1 C           4.3476    1.7317   -1.4918 C.3     1  LIG1        0.0788
      2 O           3.8041    0.7220   -0.7041 O.3     1  LIG1       -0.4943
      3 C           4.2681   -0.5872   -0.6558 C.ar    1  LIG1        0.1332
      4 C           5.3671   -0.9087   -1.4678 C.ar    1  LIG1       -0.0058
      5 C           5.8789   -2.1641   -1.4777 C.ar    1  LIG1        0.0111
      6 C           5.3152   -3.1604   -0.6747 C.ar    1  LIG1       -0.0474
      7 C           4.2422   -2.8711    0.1264 C.ar    1  LIG1       -0.0451
      8 C           3.7187   -1.5675    0.1300 C.ar    1  LIG1        0.0783
      9 C           2.5953   -1.2949    0.9801 C.2     1  LIG1        0.2481
     10 O           2.1851   -2.3077    1.6965 O.2     1  LIG1       -0.2701
     11 N           1.8717   -0.0979    1.1603 N.am    1  LIG1       -0.3024
     12 C           0.7460   -0.0811    2.1337 C.3     1  LIG1        0.0708
     13 C          -0.5430   -0.3214    1.4586 C.2     1  LIG1       -0.0533
     14 C          -1.6772    0.3131    1.7000 C.2     1  LIG1        0.0147
     15 C          -1.6519    1.3622    2.7394 C.3     1  LIG1        0.0056
     16 C          -0.3309    2.1193    2.5955 C.3     1  LIG1        0.0872
     17 C           0.7576    1.1219    2.9971 C.3     1  LIG1        0.1031
     18 O           1.9670    1.8513    2.9122 O.3     1  LIG1       -0.3871
     19 O          -0.3271    3.1255    3.5618 O.3     1  LIG1       -0.3888
     20 C          -2.9036   -0.0677    0.9660 C.2     1  LIG1        0.2405
     21 O          -2.7573   -0.9949    0.1443 O.2     1  LIG1       -0.2705
     22 N          -4.1549    0.5332    1.1461 N.am    1  LIG1       -0.3000
     23 C          -5.4076    0.3170    0.5336 C.3     1  LIG1        0.1039
     24 C          -5.4783   -0.6003   -0.6599 C.3     1  LIG1        0.0056
     25 C          -4.7181    0.0357   -1.7876 C.ar    1  LIG1       -0.0080
     26 C          -4.4525   -0.5233   -3.0177 C.ar    1  LIG1       -0.0515
     27 C          -3.7965    0.2399   -3.9086 C.ar    1  LIG1       -0.0545
     28 C          -3.4460    1.5045   -3.5170 C.ar    1  LIG1       -0.0241
     29 S          -4.0415    1.5926   -1.9254 S.2     1  LIG1       -0.1015
     30 C          -6.4897    0.1330    1.4979 C.2     1  LIG1        0.2312
     31 O          -6.3144    0.1507    2.7615 O.2     1  LIG1       -0.2740
     32 N          -7.8426   -0.0834    1.0926 N.am    1  LIG1       -0.3278
     33 S           7.2805   -2.5501   -2.5179 S.3     1  LIG1       -0.1285
     34 C           7.7901   -1.0679   -3.4196 C.3     1  LIG1       -0.0135
     35 H           5.4406    1.7587   -1.3268 H       1  LIG1        0.0660
     36 H           3.8834    2.6990   -1.1610 H       1  LIG1        0.0660
     37 H           4.0498    1.5482   -2.5412 H       1  LIG1        0.0660
     38 H           5.7788   -0.0995   -2.0787 H       1  LIG1        0.0665
     39 H           5.7076   -4.1465   -0.6753 H       1  LIG1        0.0629
     40 H           3.8077   -3.6608    0.7504 H       1  LIG1        0.0627
     41 H           2.0742    0.7730    0.6600 H       1  LIG1        0.1497
     42 H           0.9144   -0.9917    2.7667 H       1  LIG1        0.0569
     43 H          -0.5505   -1.0956    0.6930 H       1  LIG1        0.0595
     44 H          -2.4914    2.0723    2.5282 H       1  LIG1        0.0341
     45 H          -1.7726    0.9725    3.7660 H       1  LIG1        0.0341
     46 H          -0.1364    2.4677    1.5880 H       1  LIG1        0.0623
     47 H           0.6297    0.8995    4.0974 H       1  LIG1        0.0641
     48 H           1.8698    2.5955    2.2905 H       1  LIG1        0.2100
     49 H           0.5354    3.1415    4.0630 H       1  LIG1        0.2099
     50 H          -4.1383    1.3133    1.9148 H       1  LIG1        0.1498
     51 H          -5.6428    1.3774    0.0344 H       1  LIG1        0.0598
     52 H          -5.0584   -1.6034   -0.4177 H       1  LIG1        0.0341
     53 H          -6.5526   -0.7623   -0.9590 H       1  LIG1        0.0341
     54 H          -4.7684   -1.5622   -3.2596 H       1  LIG1        0.0626
     55 H          -3.5196   -0.0915   -4.9406 H       1  LIG1        0.0623
     56 H          -2.9065    2.2568   -4.1255 H       1  LIG1        0.0693
     57 H          -8.0785   -0.8312    0.4285 H       1  LIG1        0.1450
     58 H          -8.5739    0.5278    1.4767 H       1  LIG1        0.1450
     59 H           8.4895   -1.2985   -4.2564 H       1  LIG1        0.0344
     60 H           8.3068   -0.4046   -2.6652 H       1  LIG1        0.0344
     61 H           6.8993   -0.4940   -3.7586 H       1  LIG1        0.0344
@<TRIPOS>BOND
     1     1     2    1
     2     2     3    1
     3     3     4   ar
     4     4     5   ar
     5     5     6   ar
     6     6     7   ar
     7     7     8   ar
     8     8     9    1
     9     9    10    2
    10     9    11   am
    11    11    12    1
    12    12    13    1
    13    13    14    2
    14    14    15    1
    15    15    16    1
    16    16    17    1
    17    17    18    1
    18    16    19    1
    19    14    20    1
    20    20    21    2
    21    20    22   am
    22    22    23    1
    23    23    24    1
    24    24    25    1
    25    25    26   ar
    26    26    27   ar
    27    27    28   ar
    28    28    29   ar
    29    23    30    1
    30    30    31    2
    31    30    32   am
    32     5    33    1
    33    33    34    1
    34     8     3   ar
    35    17    12    1
    36    29    25   ar
    37     1    35    1
    38     1    36    1
    39     1    37    1
    40     4    38    1
    41     6    39    1
    42     7    40    1
    43    11    41    1
    44    12    42    1
    45    13    43    1
    46    15    44    1
    47    15    45    1
    48    16    46    1
    49    17    47    1
    50    18    48    1
    51    19    49    1
    52    22    50    1
    53    23    51    1
    54    24    52    1
    55    24    53    1
    56    26    54    1
    57    27    55    1
    58    28    56    1
    59    32    57    1
    60    32    58    1
    61    34    59    1
    62    34    60    1
    63    34    61    1
@<TRIPOS>MOLECULE
C04237042
 76 79 0 0 0
SMALL
GASTEIGER

@<TRIPOS>ATOM
      1 C           8.4097    2.8128   -0.6582 C.3     1  LIG1       -0.0653
      2 C           7.2839    3.4444   -1.4223 C.3     1  LIG1       -0.0559
      3 C           5.9325    2.9941   -0.8668 C.3     1  LIG1       -0.0529
      4 C           5.8670    1.5234   -0.9995 C.3     1  LIG1       -0.0448
      5 C           4.5852    0.9086   -0.4965 C.3     1  LIG1        0.0243
      6 C           4.4500    1.1014    0.9419 C.2     1  LIG1        0.2186
      7 O           5.4285    1.6338    1.5927 O.2     1  LIG1       -0.2754
      8 N           3.3034    0.7362    1.6605 N.am    1  LIG1       -0.2647
      9 C           2.2037    0.1146    1.0157 C.ar    1  LIG1        0.1648
     10 N           1.0674   -0.2585    1.5654 N.ar    1  LIG1       -0.2290
     11 C           0.1467   -0.8347    0.8525 C.ar    1  LIG1        0.0578
     12 C           0.4094   -1.0318   -0.4734 C.ar    1  LIG1        0.0149
     13 S           1.9691   -0.3737   -0.6125 S.2     1  LIG1       -0.0567
     14 C          -0.5359   -1.6822   -1.4124 C.3     1  LIG1       -0.0156
     15 C          -1.2179   -2.7488   -0.5622 C.3     1  LIG1       -0.0207
     16 C          -2.0105   -2.0632    0.4739 C.3     1  LIG1       -0.0195
     17 C          -1.1886   -1.2892    1.4085 C.3     1  LIG1        0.0161
     18 C          -1.7574   -0.2097    2.2245 C.3     1  LIG1        0.0330
     19 C          -1.9888    1.0946    1.5553 C.2     1  LIG1        0.2178
     20 O          -1.6486    1.3108    0.3782 O.2     1  LIG1       -0.2755
     21 N          -2.6150    2.1499    2.2494 N.am    1  LIG1       -0.2854
     22 C          -2.9245    3.4361    1.8295 C.ar    1  LIG1        0.0368
     23 C          -2.5129    4.0472    0.6829 C.ar    1  LIG1       -0.0402
     24 C          -2.8921    5.3415    0.3407 C.ar    1  LIG1       -0.0566
     25 C          -3.7126    6.0665    1.1637 C.ar    1  LIG1       -0.0201
     26 C          -4.1471    5.4806    2.3303 C.ar    1  LIG1        0.1186
     27 C          -3.7627    4.2018    2.6519 C.ar    1  LIG1        0.0011
     28 O          -4.9770    6.2280    3.1528 O.3     1  LIG1       -0.5067
     29 C          -2.7163   -3.1852    1.2826 C.3     1  LIG1       -0.0444
     30 C          -3.4252   -4.1834    0.4765 C.3     1  LIG1       -0.0257
     31 C          -2.6766   -4.7539   -0.6820 C.3     1  LIG1        0.0630
     32 C          -1.7974   -3.7969   -1.4044 C.3     1  LIG1        0.0206
     33 C          -0.5848   -4.6561   -1.8721 C.3     1  LIG1       -0.0548
     34 C          -2.3628   -3.3024   -2.7258 C.3     1  LIG1        0.0522
     35 O          -2.8996   -4.3214   -3.5084 O.3     1  LIG1       -0.3944
     36 O          -3.6164   -5.3343   -1.5298 O.3     1  LIG1       -0.3912
     37 C          -3.2130   -1.3014   -0.1003 C.3     1  LIG1       -0.0587
     38 H           8.5073    1.7666   -0.9956 H       1  LIG1        0.0230
     39 H           9.3547    3.3328   -0.8265 H       1  LIG1        0.0230
     40 H           8.1938    2.8013    0.4126 H       1  LIG1        0.0230
     41 H           7.3667    4.5473   -1.3872 H       1  LIG1        0.0263
     42 H           7.3532    3.1065   -2.4835 H       1  LIG1        0.0263
     43 H           5.8095    3.3399    0.1443 H       1  LIG1        0.0265
     44 H           5.1564    3.4655   -1.5226 H       1  LIG1        0.0265
     45 H           6.6814    1.0884   -0.3584 H       1  LIG1        0.0270
     46 H           5.9788    1.1883   -2.0558 H       1  LIG1        0.0270
     47 H           4.6287   -0.1836   -0.7388 H       1  LIG1        0.0358
     48 H           3.7709    1.4277   -1.0765 H       1  LIG1        0.0358
     49 H           3.2387    0.8931    2.6894 H       1  LIG1        0.1567
     50 H          -1.2138   -1.0102   -1.9254 H       1  LIG1        0.0322
     51 H           0.0216   -2.2289   -2.2298 H       1  LIG1        0.0322
     52 H          -0.3596   -3.2287    0.0148 H       1  LIG1        0.0316
     53 H          -0.8434   -2.0572    2.2056 H       1  LIG1        0.0374
     54 H          -0.9856    0.0298    3.0239 H       1  LIG1        0.0365
     55 H          -2.6465   -0.5103    2.8214 H       1  LIG1        0.0365
     56 H          -2.8735    1.8674    3.2686 H       1  LIG1        0.1548
     57 H          -1.8703    3.5497    0.0016 H       1  LIG1        0.0636
     58 H          -2.5539    5.8093   -0.5760 H       1  LIG1        0.0619
     59 H          -4.0184    7.0922    0.9010 H       1  LIG1        0.0654
     60 H          -4.1320    3.7749    3.5883 H       1  LIG1        0.0673
     61 H          -6.0007    6.1825    3.0299 H       1  LIG1        0.2921
     62 H          -3.4211   -2.7166    1.9932 H       1  LIG1        0.0272
     63 H          -1.9293   -3.6630    1.8758 H       1  LIG1        0.0272
     64 H          -4.4845   -3.9194    0.1805 H       1  LIG1        0.0290
     65 H          -3.6220   -5.0515    1.1859 H       1  LIG1        0.0290
     66 H          -2.0755   -5.6329   -0.2925 H       1  LIG1        0.0599
     67 H          -1.0462   -5.6074   -2.2529 H       1  LIG1        0.0237
     68 H          -0.1107   -4.1916   -2.7590 H       1  LIG1        0.0237
     69 H           0.1026   -4.8309   -1.0322 H       1  LIG1        0.0237
     70 H          -3.2064   -2.6168   -2.5262 H       1  LIG1        0.0563
     71 H          -1.5792   -2.8235   -3.3475 H       1  LIG1        0.0563
     72 H          -2.2959   -4.6283   -4.2153 H       1  LIG1        0.2094
     73 H          -4.0625   -6.1119   -1.1307 H       1  LIG1        0.2098
     74 H          -3.0042   -0.7760   -1.0237 H       1  LIG1        0.0235
     75 H          -3.9929   -2.0603   -0.3694 H       1  LIG1        0.0235
     76 H          -3.7089   -0.7137    0.6984 H       1  LIG1        0.0235
@<TRIPOS>BOND
     1     1     2    1
     2     2     3    1
     3     3     4    1
     4     4     5    1
     5     5     6    1
     6     6     7    2
     7     6     8   am
     8     8     9    1
     9     9    10   ar
    10    10    11   ar
    11    11    12   ar
    12    12    13   ar
    13    12    14    1
    14    14    15    1
    15    15    16    1
    16    16    17    1
    17    17    18    1
    18    18    19    1
    19    19    20    2
    20    19    21   am
    21    21    22    1
    22    22    23   ar
    23    23    24   ar
    24    24    25   ar
    25    25    26   ar
    26    26    27   ar
    27    26    28    1
    28    16    29    1
    29    29    30    1
    30    30    31    1
    31    31    32    1
    32    32    33    1
    33    32    34    1
    34    34    35    1
    35    31    36    1
    36    16    37    1
    37    13     9   ar
    38    17    11    1
    39    32    15    1
    40    27    22   ar
    41     1    38    1
    42     1    39    1
    43     1    40    1
    44     2    41    1
    45     2    42    1
    46     3    43    1
    47     3    44    1
    48     4    45    1
    49     4    46    1
    50     5    47    1
    51     5    48    1
    52     8    49    1
    53    14    50    1
    54    14    51    1
    55    15    52    1
    56    17    53    1
    57    18    54    1
    58    18    55    1
    59    21    56    1
    60    23    57    1
    61    24    58    1
    62    25    59    1
    63    27    60    1
    64    28    61    1
    65    29    62    1
    66    29    63    1
    67    30    64    1
    68    30    65    1
    69    31    66    1
    70    33    67    1
    71    33    68    1
    72    33    69    1
    73    34    70    1
    74    34    71    1
    75    35    72    1
    76    36    73    1
    77    37    74    1
    78    37    75    1
    79    37    76    1
@<TRIPOS>MOLECULE
C06134461
 61 63 0 0 0
SMALL
GASTEIGER

@<TRIPOS>ATOM
      1 C           5.6741    0.5111   -2.1135 C.3     1  LIG1       -0.0626
      2 C           4.9192    1.2485   -1.0562 C.3     1  LIG1       -0.0453
      3 C           5.4952    1.1143    0.3174 C.3     1  LIG1       -0.0626
      4 C           3.4963    0.6632   -1.0108 C.3     1  LIG1       -0.0350
      5 C           2.7585    1.4132    0.0544 C.3     1  LIG1        0.0119
      6 N           1.4080    0.9414    0.1621 N.am    1  LIG1       -0.3135
      7 C           1.0926   -0.3731    0.5319 C.2     1  LIG1        0.2385
      8 O           2.0356   -1.1710    0.7965 O.2     1  LIG1       -0.2734
      9 C          -0.3159   -0.8760    0.6334 C.3     1  LIG1        0.1323
     10 C          -0.4199   -2.3283    0.4998 C.ar    1  LIG1       -0.0178
     11 C           0.3782   -3.0550   -0.3645 C.ar    1  LIG1       -0.0549
     12 C           0.2245   -4.4216   -0.3906 C.ar    1  LIG1       -0.0431
     13 C          -0.6746   -5.1165    0.3890 C.ar    1  LIG1        0.0410
     14 C          -1.4635   -4.3659    1.2467 C.ar    1  LIG1       -0.0431
     15 C          -1.3472   -2.9980    1.3096 C.ar    1  LIG1       -0.0549
     16 CL         -0.8241   -6.8734    0.3091 Cl      1  LIG1       -0.0835
     17 N          -1.2816   -0.1258   -0.1068 N.am    1  LIG1       -0.2507
     18 C          -1.3826   -0.3540   -1.5626 C.ar    1  LIG1        0.0412
     19 C          -0.8836    0.5525   -2.4600 C.ar    1  LIG1       -0.0400
     20 C          -0.9785    0.3576   -3.8276 C.ar    1  LIG1       -0.0566
     21 C          -1.5875   -0.7707   -4.3245 C.ar    1  LIG1       -0.0201
     22 C          -2.0972   -1.6955   -3.4416 C.ar    1  LIG1        0.1186
     23 C          -1.9900   -1.4781   -2.0665 C.ar    1  LIG1        0.0013
     24 O          -2.7068   -2.8246   -3.9645 O.3     1  LIG1       -0.5067
     25 C          -2.1990    0.7422    0.4673 C.2     1  LIG1        0.2617
     26 O          -3.1678    1.1094   -0.2991 O.2     1  LIG1       -0.2689
     27 C          -2.2096    1.2905    1.8035 C.ar    1  LIG1        0.1156
     28 C          -3.1840    2.1380    2.3293 C.ar    1  LIG1        0.0765
     29 C          -2.9912    2.5655    3.5882 C.ar    1  LIG1        0.1554
     30 N          -1.8902    2.1441    4.2222 N.ar    1  LIG1       -0.2031
     31 S          -1.1218    1.1748    3.1176 S.2     1  LIG1        0.0190
     32 C          -3.9543    3.4840    4.2944 C.2     1  LIG1        0.2624
     33 O          -4.9922    3.8992    3.7342 O.2     1  LIG1       -0.2687
     34 N          -3.7012    3.8953    5.6089 N.am    1  LIG1       -0.3240
     35 N          -4.3413    2.5246    1.5357 N.pl3   1  LIG1       -0.3551
     36 H           5.1686    0.6699   -3.0801 H       1  LIG1        0.0232
     37 H           5.7338   -0.5771   -1.9502 H       1  LIG1        0.0232
     38 H           6.6844    0.9907   -2.2144 H       1  LIG1        0.0232
     39 H           4.7865    2.2963   -1.3885 H       1  LIG1        0.0296
     40 H           6.5978    0.9774    0.3135 H       1  LIG1        0.0232
     41 H           5.2175    2.0473    0.8693 H       1  LIG1        0.0232
     42 H           5.0160    0.2721    0.8284 H       1  LIG1        0.0232
     43 H           3.0251    0.7829   -2.0130 H       1  LIG1        0.0283
     44 H           3.5366   -0.4147   -0.8211 H       1  LIG1        0.0283
     45 H           3.3043    1.3380    1.0280 H       1  LIG1        0.0462
     46 H           2.7598    2.5235   -0.1491 H       1  LIG1        0.0462
     47 H           0.6547    1.6632   -0.0438 H       1  LIG1        0.1487
     48 H          -0.5554   -0.6707    1.7304 H       1  LIG1        0.0651
     49 H           1.0770   -2.5295   -0.9792 H       1  LIG1        0.0621
     50 H           0.8656   -4.9852   -1.0825 H       1  LIG1        0.0632
     51 H          -2.1721   -4.9029    1.8627 H       1  LIG1        0.0632
     52 H          -1.9912   -2.4367    2.0028 H       1  LIG1        0.0621
     53 H          -0.4024    1.4643   -2.1583 H       1  LIG1        0.0636
     54 H          -0.5682    1.1014   -4.5134 H       1  LIG1        0.0619
     55 H          -1.6693   -0.9391   -5.3998 H       1  LIG1        0.0654
     56 H          -2.4215   -2.2327   -1.4497 H       1  LIG1        0.0673
     57 H          -3.7208   -2.7538   -4.1428 H       1  LIG1        0.2921
     58 H          -4.0362    3.2466    6.3815 H       1  LIG1        0.1453
     59 H          -3.2110    4.7878    5.8624 H       1  LIG1        0.1453
     60 H          -4.2817    3.4305    1.0371 H       1  LIG1        0.1424
     61 H          -5.1745    1.9085    1.4845 H       1  LIG1        0.1424
@<TRIPOS>BOND
     1     1     2    1
     2     2     3    1
     3     2     4    1
     4     4     5    1
     5     5     6    1
     6     6     7   am
     7     7     8    2
     8     7     9    1
     9     9    10    1
    10    10    11   ar
    11    11    12   ar
    12    12    13   ar
    13    13    14   ar
    14    14    15   ar
    15    13    16    1
    16     9    17    1
    17    17    18    1
    18    18    19   ar
    19    19    20   ar
    20    20    21   ar
    21    21    22   ar
    22    22    23   ar
    23    22    24    1
    24    17    25   am
    25    25    26    2
    26    25    27    1
    27    27    28   ar
    28    28    29   ar
    29    29    30   ar
    30    30    31   ar
    31    29    32    1
    32    32    33    2
    33    32    34   am
    34    28    35    1
    35    15    10   ar
    36    23    18   ar
    37    31    27   ar
    38     1    36    1
    39     1    37    1
    40     1    38    1
    41     2    39    1
    42     3    40    1
    43     3    41    1
    44     3    42    1
    45     4    43    1
    46     4    44    1
    47     5    45    1
    48     5    46    1
    49     6    47    1
    50     9    48    1
    51    11    49    1
    52    12    50    1
    53    14    51    1
    54    15    52    1
    55    19    53    1
    56    20    54    1
    57    21    55    1
    58    23    56    1
    59    24    57    1
    60    34    58    1
    61    34    59    1
    62    35    60    1
    63    35    61    1
@<TRIPOS>MOLECULE
C06077463
 68 70 0 0 0
SMALL
GASTEIGER

@<TRIPOS>ATOM
      1 C          -4.7580   -1.8997    0.3768 C.3     1  LIG1       -0.0634
      2 C          -3.8214   -2.9879   -0.0230 C.3     1  LIG1       -0.0350
      3 C          -2.7248   -3.2571    0.9403 C.3     1  LIG1        0.0288
      4 C          -3.3589   -3.6356    2.2703 C.3     1  LIG1       -0.0440
      5 C          -2.0247   -4.5459    0.4762 C.3     1  LIG1       -0.0440
      6 N          -1.7802   -2.2154    1.1477 N.am    1  LIG1       -0.3085
      7 C          -0.9068   -1.6761    0.1271 C.2     1  LIG1        0.2389
      8 O          -1.0155   -2.1681   -1.0204 O.2     1  LIG1       -0.2734
      9 C           0.0288   -0.6347    0.4544 C.3     1  LIG1        0.1325
     10 C          -0.6019    0.7100    0.6877 C.ar    1  LIG1       -0.0177
     11 C           0.0939    1.7379    1.2351 C.ar    1  LIG1       -0.0546
     12 C          -0.5131    2.9552    1.4233 C.ar    1  LIG1       -0.0403
     13 C          -1.8501    3.1675    1.0604 C.ar    1  LIG1        0.0292
     14 C          -2.5379    2.1225    0.5099 C.ar    1  LIG1       -0.0403
     15 C          -1.9036    0.8891    0.3252 C.ar    1  LIG1       -0.0546
     16 N          -2.4702    4.4243    1.2580 N.pl3   1  LIG1       -0.3360
     17 C          -2.4003    5.4191    0.2263 C.3     1  LIG1        0.0004
     18 C          -3.1635    4.6962    2.4845 C.3     1  LIG1        0.0004
     19 N           1.1982   -0.4788   -0.4233 N.am    1  LIG1       -0.2481
     20 C           1.0665   -0.2794   -1.8102 C.ar    1  LIG1        0.0729
     21 C           0.5461    0.8290   -2.4269 C.ar    1  LIG1       -0.0374
     22 C           0.4064    0.9761   -3.7995 C.ar    1  LIG1       -0.0598
     23 C           0.8152   -0.0562   -4.6126 C.ar    1  LIG1       -0.0589
     24 C           1.3495   -1.2000   -4.0460 C.ar    1  LIG1       -0.0246
     25 C           1.4712   -1.3050   -2.6776 C.ar    1  LIG1        0.1447
     26 F           2.0275   -2.4437   -2.1846 F       1  LIG1       -0.2035
     27 C           2.4644   -0.5251    0.2182 C.2     1  LIG1        0.2618
     28 O           2.5390   -0.9399    1.4280 O.2     1  LIG1       -0.2689
     29 C           3.7336   -0.1290   -0.3789 C.ar    1  LIG1        0.1156
     30 C           4.9915   -0.1895    0.1686 C.ar    1  LIG1        0.0765
     31 C           5.9976    0.2835   -0.5768 C.ar    1  LIG1        0.1554
     32 N           5.7098    0.7729   -1.7815 N.ar    1  LIG1       -0.2031
     33 S           4.0575    0.5911   -1.9078 S.2     1  LIG1        0.0190
     34 C           7.4273    0.2956   -0.1328 C.2     1  LIG1        0.2624
     35 O           7.7782   -0.1408    0.9832 O.2     1  LIG1       -0.2687
     36 N           8.4484    0.8064   -0.9676 N.am    1  LIG1       -0.3240
     37 N           5.1843   -0.7443    1.4809 N.pl3   1  LIG1       -0.3551
     38 H          -5.7874   -2.2634    0.4039 H       1  LIG1        0.0230
     39 H          -4.4855   -1.4235    1.3478 H       1  LIG1        0.0230
     40 H          -4.7354   -1.0615   -0.3640 H       1  LIG1        0.0230
     41 H          -3.3845   -2.7598   -1.0282 H       1  LIG1        0.0283
     42 H          -4.3803   -3.9514   -0.1586 H       1  LIG1        0.0283
     43 H          -4.3628   -3.1741    2.3848 H       1  LIG1        0.0250
     44 H          -2.6818   -3.3454    3.1119 H       1  LIG1        0.0250
     45 H          -3.5215   -4.7271    2.3385 H       1  LIG1        0.0250
     46 H          -1.9086   -4.5198   -0.6295 H       1  LIG1        0.0250
     47 H          -2.7333   -5.3686    0.7035 H       1  LIG1        0.0250
     48 H          -1.0959   -4.7165    1.0266 H       1  LIG1        0.0250
     49 H          -1.6669   -1.7642    2.1022 H       1  LIG1        0.1493
     50 H           0.4296   -0.8494    1.5127 H       1  LIG1        0.0651
     51 H           1.1108    1.6098    1.5215 H       1  LIG1        0.0622
     52 H          -0.0127    3.8119    1.8543 H       1  LIG1        0.0636
     53 H          -3.5576    2.2738    0.2302 H       1  LIG1        0.0636
     54 H          -2.5221    0.1358   -0.1211 H       1  LIG1        0.0622
     55 H          -2.7890    5.0400   -0.7495 H       1  LIG1        0.0428
     56 H          -2.9064    6.3426    0.5481 H       1  LIG1        0.0428
     57 H          -1.3096    5.6788    0.1101 H       1  LIG1        0.0428
     58 H          -3.0677    3.8196    3.1891 H       1  LIG1        0.0428
     59 H          -4.2641    4.8593    2.3167 H       1  LIG1        0.0428
     60 H          -2.6984    5.5693    2.9897 H       1  LIG1        0.0428
     61 H           0.2228    1.6500   -1.8404 H       1  LIG1        0.0637
     62 H          -0.0160    1.8836   -4.2279 H       1  LIG1        0.0618
     63 H           0.7323   -0.0024   -5.6952 H       1  LIG1        0.0618
     64 H           1.6791   -2.0298   -4.6850 H       1  LIG1        0.0647
     65 H           9.1975    0.1415   -1.2793 H       1  LIG1        0.1453
     66 H           8.5104    1.7754   -1.2899 H       1  LIG1        0.1453
     67 H           5.3128   -0.1012    2.2660 H       1  LIG1        0.1424
     68 H           5.1884   -1.7574    1.5985 H       1  LIG1        0.1424
@<TRIPOS>BOND
     1     1     2    1
     2     2     3    1
     3     3     4    1
     4     3     5    1
     5     3     6    1
     6     6     7   am
     7     7     8    2
     8     7     9    1
     9     9    10    1
    10    10    11   ar
    11    11    12   ar
    12    12    13   ar
    13    13    14   ar
    14    14    15   ar
    15    13    16    1
    16    16    17    1
    17    16    18    1
    18     9    19    1
    19    19    20    1
    20    20    21   ar
    21    21    22   ar
    22    22    23   ar
    23    23    24   ar
    24    24    25   ar
    25    25    26    1
    26    19    27   am
    27    27    28    2
    28    27    29    1
    29    29    30   ar
    30    30    31   ar
    31    31    32   ar
    32    32    33   ar
    33    31    34    1
    34    34    35    2
    35    34    36   am
    36    30    37    1
    37    15    10   ar
    38    25    20   ar
    39    33    29   ar
    40     1    38    1
    41     1    39    1
    42     1    40    1
    43     2    41    1
    44     2    42    1
    45     4    43    1
    46     4    44    1
    47     4    45    1
    48     5    46    1
    49     5    47    1
    50     5    48    1
    51     6    49    1
    52     9    50    1
    53    11    51    1
    54    12    52    1
    55    14    53    1
    56    15    54    1
    57    17    55    1
    58    17    56    1
    59    17    57    1
    60    18    58    1
    61    18    59    1
    62    18    60    1
    63    21    61    1
    64    22    62    1
    65    23    63    1
    66    24    64    1
    67    36    65    1
    68    36    66    1
    69    37    67    1
    70    37    68    1
@<TRIPOS>MOLECULE
C06822200
 70 72 0 0 0
SMALL
GASTEIGER

@<TRIPOS>ATOM
      1 C          -3.8879   -3.1377   -4.6123 C.3     1  LIG1       -0.0613
      2 C          -4.3558   -3.0843   -3.1970 C.3     1  LIG1       -0.0305
      3 C          -3.4215   -2.2477   -2.3712 C.ar    1  LIG1       -0.0475
      4 C          -3.7063   -0.8962   -2.2965 C.ar    1  LIG1       -0.0568
      5 C          -2.8359   -0.1187   -1.5270 C.ar    1  LIG1       -0.0400
      6 C          -1.7528   -0.6423   -0.8733 C.ar    1  LIG1        0.0378
      7 C          -1.4992   -1.9831   -0.9664 C.ar    1  LIG1       -0.0400
      8 C          -2.3405   -2.8061   -1.7248 C.ar    1  LIG1       -0.0568
      9 N          -0.8739    0.2014   -0.1734 N.am    1  LIG1       -0.2509
     10 C           0.4494    0.4649   -0.7342 C.3     1  LIG1        0.1324
     11 C           1.5540   -0.3157   -0.1879 C.ar    1  LIG1       -0.0176
     12 C           1.7540   -0.6941    1.1108 C.ar    1  LIG1       -0.0529
     13 C           2.8384   -1.4399    1.5602 C.ar    1  LIG1       -0.0196
     14 C           3.7899   -1.8399    0.6658 C.ar    1  LIG1        0.1205
     15 C           3.6483   -1.4929   -0.6557 C.ar    1  LIG1       -0.0196
     16 C           2.5670   -0.7563   -1.0667 C.ar    1  LIG1       -0.0529
     17 O           4.9078   -2.6012    1.0896 O.3     1  LIG1       -0.4922
     18 C           5.0552   -2.9563    2.4303 C.3     1  LIG1        0.0868
     19 C           6.3448   -3.7610    2.5462 C.3     1  LIG1       -0.0307
     20 C           0.7077    1.8800   -1.0211 C.2     1  LIG1        0.2388
     21 O          -0.2351    2.7565   -0.9593 O.2     1  LIG1       -0.2734
     22 N           1.9626    2.4257   -1.3816 N.am    1  LIG1       -0.3087
     23 C           2.1724    3.8185   -1.6570 C.3     1  LIG1        0.0262
     24 C           1.8034    4.7217   -0.5090 C.3     1  LIG1       -0.0442
     25 C           1.3491    4.2304   -2.8541 C.3     1  LIG1       -0.0442
     26 C           3.6301    4.0572   -2.0120 C.3     1  LIG1       -0.0442
     27 C          -1.2790    0.7124    1.0729 C.2     1  LIG1        0.2617
     28 O          -0.6502    1.6816    1.6222 O.2     1  LIG1       -0.2689
     29 C          -2.4041    0.2258    1.8571 C.ar    1  LIG1        0.1156
     30 C          -2.8739    0.6996    3.0628 C.ar    1  LIG1        0.0765
     31 C          -3.9216    0.0381    3.6004 C.ar    1  LIG1        0.1554
     32 N          -4.4036   -0.9989    2.9297 N.ar    1  LIG1       -0.2031
     33 S          -3.4461   -1.0892    1.5672 S.2     1  LIG1        0.0190
     34 C          -4.5134    0.4551    4.8943 C.2     1  LIG1        0.2624
     35 O          -4.0894    1.4319    5.5597 O.2     1  LIG1       -0.2687
     36 N          -5.6061   -0.2910    5.3914 N.am    1  LIG1       -0.3240
     37 N          -2.2290    1.8652    3.6694 N.pl3   1  LIG1       -0.3551
     38 H          -2.8249   -2.8251   -4.7212 H       1  LIG1        0.0233
     39 H          -3.9792   -4.1670   -4.9707 H       1  LIG1        0.0233
     40 H          -4.4944   -2.5029   -5.2953 H       1  LIG1        0.0233
     41 H          -5.3812   -2.6789   -3.1639 H       1  LIG1        0.0311
     42 H          -4.4306   -4.1106   -2.7404 H       1  LIG1        0.0311
     43 H          -4.5606   -0.4800   -2.8118 H       1  LIG1        0.0621
     44 H          -3.0987    0.9504   -1.4928 H       1  LIG1        0.0636
     45 H          -0.6602   -2.4091   -0.4627 H       1  LIG1        0.0636
     46 H          -2.1755   -3.8672   -1.8247 H       1  LIG1        0.0621
     47 H           0.3416   -0.0204   -1.7871 H       1  LIG1        0.0651
     48 H           1.0354   -0.4185    1.8372 H       1  LIG1        0.0622
     49 H           2.9279   -1.7025    2.6149 H       1  LIG1        0.0654
     50 H           4.4114   -1.8202   -1.3454 H       1  LIG1        0.0654
     51 H           2.4508   -0.4764   -2.1235 H       1  LIG1        0.0622
     52 H           5.1047   -2.0241    3.0500 H       1  LIG1        0.0694
     53 H           4.1722   -3.5699    2.7389 H       1  LIG1        0.0694
     54 H           7.1462   -3.2101    2.0361 H       1  LIG1        0.0262
     55 H           6.5156   -3.9542    3.6110 H       1  LIG1        0.0262
     56 H           6.1641   -4.7153    1.9967 H       1  LIG1        0.0262
     57 H           2.8050    1.7927   -1.4575 H       1  LIG1        0.1493
     58 H           1.6554    4.1728    0.4515 H       1  LIG1        0.0250
     59 H           2.5402    5.5255   -0.4364 H       1  LIG1        0.0250
     60 H           0.8226    5.2165   -0.7126 H       1  LIG1        0.0250
     61 H           1.7914    5.1746   -3.2632 H       1  LIG1        0.0250
     62 H           0.3054    4.4947   -2.5931 H       1  LIG1        0.0250
     63 H           1.3886    3.4169   -3.6111 H       1  LIG1        0.0250
     64 H           4.2213    4.2822   -1.0996 H       1  LIG1        0.0250
     65 H           3.9968    3.1526   -2.5368 H       1  LIG1        0.0250
     66 H           3.6903    4.9333   -2.6791 H       1  LIG1        0.0250
     67 H          -6.5771   -0.2327    4.9910 H       1  LIG1        0.1453
     68 H          -5.5074   -0.9506    6.1966 H       1  LIG1        0.1453
     69 H          -2.6799    2.7999    3.5958 H       1  LIG1        0.1424
     70 H          -1.3260    1.7099    4.1602 H       1  LIG1        0.1424
@<TRIPOS>BOND
     1     1     2    1
     2     2     3    1
     3     3     4   ar
     4     4     5   ar
     5     5     6   ar
     6     6     7   ar
     7     7     8   ar
     8     6     9    1
     9     9    10    1
    10    10    11    1
    11    11    12   ar
    12    12    13   ar
    13    13    14   ar
    14    14    15   ar
    15    15    16   ar
    16    14    17    1
    17    17    18    1
    18    18    19    1
    19    10    20    1
    20    20    21    2
    21    20    22   am
    22    22    23    1
    23    23    24    1
    24    23    25    1
    25    23    26    1
    26     9    27   am
    27    27    28    2
    28    27    29    1
    29    29    30   ar
    30    30    31   ar
    31    31    32   ar
    32    32    33   ar
    33    31    34    1
    34    34    35    2
    35    34    36   am
    36    30    37    1
    37     8     3   ar
    38    16    11   ar
    39    33    29   ar
    40     1    38    1
    41     1    39    1
    42     1    40    1
    43     2    41    1
    44     2    42    1
    45     4    43    1
    46     5    44    1
    47     7    45    1
    48     8    46    1
    49    10    47    1
    50    12    48    1
    51    13    49    1
    52    15    50    1
    53    16    51    1
    54    18    52    1
    55    18    53    1
    56    19    54    1
    57    19    55    1
    58    19    56    1
    59    22    57    1
    60    24    58    1
    61    24    59    1
    62    24    60    1
    63    25    61    1
    64    25    62    1
    65    25    63    1
    66    26    64    1
    67    26    65    1
    68    26    66    1
    69    36    67    1
    70    36    68    1
    71    37    69    1
    72    37    70    1
@<TRIPOS>MOLECULE
C06860675
 66 68 0 0 0
SMALL
GASTEIGER

@<TRIPOS>ATOM
      1 C          -3.1439   -2.8915   -1.6037 C.3     1  LIG1       -0.0612
      2 C          -1.6850   -3.2722   -1.7113 C.3     1  LIG1       -0.0288
      3 C          -0.9138   -2.2631   -2.4318 C.ar    1  LIG1       -0.0262
      4 C          -0.6134   -2.5622   -3.7883 C.ar    1  LIG1       -0.0568
      5 C           0.0922   -1.6556   -4.5441 C.ar    1  LIG1       -0.0614
      6 C           0.5314   -0.4513   -4.0477 C.ar    1  LIG1       -0.0600
      7 C           0.2255   -0.1929   -2.7348 C.ar    1  LIG1       -0.0400
      8 C          -0.4967   -1.1021   -1.9309 C.ar    1  LIG1        0.0409
      9 N          -0.7346   -0.6696   -0.5290 N.am    1  LIG1       -0.2506
     10 C           0.1341   -1.2500    0.4078 C.3     1  LIG1        0.1323
     11 C          -0.2398   -1.6913    1.7273 C.ar    1  LIG1       -0.0177
     12 C           0.6163   -1.4087    2.8047 C.ar    1  LIG1       -0.0536
     13 C           0.3628   -1.8255    4.0984 C.ar    1  LIG1       -0.0261
     14 C          -0.7586   -2.5476    4.3960 C.ar    1  LIG1        0.1234
     15 C          -1.6173   -2.8409    3.3701 C.ar    1  LIG1       -0.0261
     16 C          -1.3573   -2.4227    2.0886 C.ar    1  LIG1       -0.0536
     17 F          -0.9943   -2.9524    5.6780 F       1  LIG1       -0.2055
     18 C           1.3719   -0.3025    0.5277 C.2     1  LIG1        0.2385
     19 O           1.1405    0.8999    0.4899 O.2     1  LIG1       -0.2734
     20 N           2.6489   -0.8465    0.6608 N.am    1  LIG1       -0.3135
     21 C           3.9514   -0.3016    0.7743 C.3     1  LIG1        0.0119
     22 C           4.5655    0.4765   -0.3031 C.3     1  LIG1       -0.0350
     23 C           4.0295    1.7823   -0.7052 C.3     1  LIG1       -0.0453
     24 C           4.0627    2.8078    0.4156 C.3     1  LIG1       -0.0626
     25 C           5.0074    2.3747   -1.7703 C.3     1  LIG1       -0.0626
     26 C          -1.6725    0.3131   -0.4321 C.2     1  LIG1        0.2617
     27 O          -2.2318    0.6173   -1.6241 O.2     1  LIG1       -0.2689
     28 C          -2.2440    1.1372    0.6055 C.ar    1  LIG1        0.1156
     29 C          -3.2350    2.1103    0.4701 C.ar    1  LIG1        0.0765
     30 C          -3.5993    2.7627    1.5754 C.ar    1  LIG1        0.1554
     31 N          -2.9945    2.4408    2.7242 N.ar    1  LIG1       -0.2031
     32 S          -1.9340    1.2481    2.2747 S.2     1  LIG1        0.0190
     33 C          -4.6326    3.8297    1.6159 C.2     1  LIG1        0.2624
     34 O          -5.2010    4.1526    0.5686 O.2     1  LIG1       -0.2687
     35 N          -4.9813    4.4822    2.8169 N.am    1  LIG1       -0.3240
     36 N          -3.8211    2.3761   -0.8367 N.pl3   1  LIG1       -0.3551
     37 H          -3.3230   -2.3240   -0.6779 H       1  LIG1        0.0233
     38 H          -3.7667   -3.8103   -1.6315 H       1  LIG1        0.0233
     39 H          -3.4378   -2.2124   -2.4470 H       1  LIG1        0.0233
     40 H          -1.3078   -3.5094   -0.7166 H       1  LIG1        0.0311
     41 H          -1.7021   -4.2129   -2.3473 H       1  LIG1        0.0311
     42 H          -0.9396   -3.4941   -4.2152 H       1  LIG1        0.0621
     43 H           0.3323   -1.8679   -5.5845 H       1  LIG1        0.0618
     44 H           1.0851    0.2842   -4.6076 H       1  LIG1        0.0618
     45 H           0.5307    0.7349   -2.2761 H       1  LIG1        0.0636
     46 H           0.7003   -2.1429   -0.0619 H       1  LIG1        0.0651
     47 H           1.5169   -0.8311    2.7064 H       1  LIG1        0.0622
     48 H           1.0318   -1.6009    4.9216 H       1  LIG1        0.0646
     49 H          -2.5194   -3.4138    3.5741 H       1  LIG1        0.0646
     50 H          -2.0624   -2.6541    1.2939 H       1  LIG1        0.0622
     51 H           2.6583   -1.9652    0.6803 H       1  LIG1        0.1487
     52 H           4.6961   -1.0704    1.1555 H       1  LIG1        0.0462
     53 H           3.8967    0.4004    1.7001 H       1  LIG1        0.0462
     54 H           4.5428   -0.1753   -1.2392 H       1  LIG1        0.0283
     55 H           5.6858    0.6213   -0.0842 H       1  LIG1        0.0283
     56 H           3.0790    1.7851   -1.2157 H       1  LIG1        0.0296
     57 H           3.9882    3.8011   -0.0429 H       1  LIG1        0.0232
     58 H           3.2776    2.6948    1.1597 H       1  LIG1        0.0232
     59 H           5.0565    2.7069    0.9147 H       1  LIG1        0.0232
     60 H           4.5369    3.2705   -2.2235 H       1  LIG1        0.0232
     61 H           5.1595    1.5856   -2.5147 H       1  LIG1        0.0232
     62 H           5.9474    2.6465   -1.2934 H       1  LIG1        0.0232
     63 H          -5.5417    3.9585    3.5398 H       1  LIG1        0.1453
     64 H          -4.7173    5.4663    3.0420 H       1  LIG1        0.1453
     65 H          -3.5255    3.2380   -1.3478 H       1  LIG1        0.1424
     66 H          -4.5170    1.7292   -1.2588 H       1  LIG1        0.1424
@<TRIPOS>BOND
     1     1     2    1
     2     2     3    1
     3     3     4   ar
     4     4     5   ar
     5     5     6   ar
     6     6     7   ar
     7     7     8   ar
     8     8     9    1
     9     9    10    1
    10    10    11    1
    11    11    12   ar
    12    12    13   ar
    13    13    14   ar
    14    14    15   ar
    15    15    16   ar
    16    14    17    1
    17    10    18    1
    18    18    19    2
    19    18    20   am
    20    20    21    1
    21    21    22    1
    22    22    23    1
    23    23    24    1
    24    23    25    1
    25     9    26   am
    26    26    27    2
    27    26    28    1
    28    28    29   ar
    29    29    30   ar
    30    30    31   ar
    31    31    32   ar
    32    30    33    1
    33    33    34    2
    34    33    35   am
    35    29    36    1
    36     8     3   ar
    37    16    11   ar
    38    32    28   ar
    39     1    37    1
    40     1    38    1
    41     1    39    1
    42     2    40    1
    43     2    41    1
    44     4    42    1
    45     5    43    1
    46     6    44    1
    47     7    45    1
    48    10    46    1
    49    12    47    1
    50    13    48    1
    51    15    49    1
    52    16    50    1
    53    20    51    1
    54    21    52    1
    55    21    53    1
    56    22    54    1
    57    22    55    1
    58    23    56    1
    59    24    57    1
    60    24    58    1
    61    24    59    1
    62    25    60    1
    63    25    61    1
    64    25    62    1
    65    35    63    1
    66    35    64    1
    67    36    65    1
    68    36    66    1
@<TRIPOS>MOLECULE
C06905101
 56 58 0 0 0
SMALL
GASTEIGER

@<TRIPOS>ATOM
      1 C           4.1094   -4.5032   -1.1000 C.3     1  LIG1        0.0365
      2 O           4.5790   -3.3118   -0.6171 O.3     1  LIG1       -0.3814
      3 C           3.5978   -2.3609   -0.4928 C.3     1  LIG1        0.0628
      4 C           2.9014   -1.9922   -1.7744 C.3     1  LIG1        0.0351
      5 N           1.9090   -1.0038   -1.5238 N.am    1  LIG1       -0.3113
      6 C           2.0779    0.2998   -1.0246 C.2     1  LIG1        0.2385
      7 O           3.2479    0.6829   -0.7671 O.2     1  LIG1       -0.2734
      8 C           0.9964    1.2487   -0.7831 C.3     1  LIG1        0.1323
      9 C           1.2794    2.2890    0.2352 C.ar    1  LIG1       -0.0176
     10 C           0.6974    2.4140    1.4554 C.ar    1  LIG1       -0.0529
     11 C           1.0399    3.4120    2.3653 C.ar    1  LIG1       -0.0199
     12 C           1.9960    4.3210    2.0506 C.ar    1  LIG1        0.1169
     13 C           2.6140    4.2407    0.8308 C.ar    1  LIG1       -0.0199
     14 C           2.2707    3.2561   -0.0548 C.ar    1  LIG1       -0.0529
     15 O           2.3104    5.3053    2.9886 O.3     1  LIG1       -0.5068
     16 N          -0.3261    0.7132   -0.6521 N.am    1  LIG1       -0.2509
     17 C          -1.3165    1.2391   -1.5240 C.ar    1  LIG1        0.0378
     18 C          -1.5805    0.5011   -2.6613 C.ar    1  LIG1       -0.0402
     19 C          -2.4859    0.9638   -3.5879 C.ar    1  LIG1       -0.0600
     20 C          -3.1188    2.1520   -3.3761 C.ar    1  LIG1       -0.0616
     21 C          -2.8629    2.8888   -2.2507 C.ar    1  LIG1       -0.0600
     22 C          -1.9610    2.4386   -1.3163 C.ar    1  LIG1       -0.0402
     23 C          -0.6598   -0.2489    0.2961 C.2     1  LIG1        0.2617
     24 O           0.2956   -0.7829    0.9651 O.2     1  LIG1       -0.2689
     25 C          -1.9981   -0.7112    0.6065 C.ar    1  LIG1        0.1156
     26 C          -2.3776   -1.6691    1.5255 C.ar    1  LIG1        0.0765
     27 C          -3.6864   -1.9092    1.6344 C.ar    1  LIG1        0.1554
     28 N          -4.5174   -1.2130    0.8557 N.ar    1  LIG1       -0.2031
     29 S          -3.5005   -0.2257   -0.0290 S.2     1  LIG1        0.0190
     30 C          -4.2588   -2.9165    2.5831 C.2     1  LIG1        0.2624
     31 O          -3.5497   -3.6033    3.3389 O.2     1  LIG1       -0.2687
     32 N          -5.6579   -3.1292    2.6568 N.am    1  LIG1       -0.3240
     33 N          -1.3706   -2.3603    2.3129 N.pl3   1  LIG1       -0.3551
     34 H           3.6677   -4.4650   -2.0941 H       1  LIG1        0.0523
     35 H           3.3785   -4.9886   -0.4109 H       1  LIG1        0.0523
     36 H           4.9853   -5.2098   -1.1336 H       1  LIG1        0.0523
     37 H           2.8446   -2.6855    0.2788 H       1  LIG1        0.0575
     38 H           4.0615   -1.4420   -0.0788 H       1  LIG1        0.0575
     39 H           3.6920   -1.6541   -2.4822 H       1  LIG1        0.0484
     40 H           2.4425   -2.9075   -2.2345 H       1  LIG1        0.0484
     41 H           0.9023   -1.2753   -1.7529 H       1  LIG1        0.1488
     42 H           0.9125    1.9367   -1.7526 H       1  LIG1        0.0651
     43 H          -0.0971    1.7578    1.8032 H       1  LIG1        0.0622
     44 H           0.5451    3.4570    3.3138 H       1  LIG1        0.0654
     45 H           3.3825    4.9925    0.6073 H       1  LIG1        0.0654
     46 H           2.7485    3.1856   -1.0097 H       1  LIG1        0.0622
     47 H           3.0414    5.1059    3.6564 H       1  LIG1        0.2921
     48 H          -1.0723   -0.4550   -2.8319 H       1  LIG1        0.0636
     49 H          -2.7157    0.4050   -4.4944 H       1  LIG1        0.0618
     50 H          -3.8485    2.5697   -4.0792 H       1  LIG1        0.0618
     51 H          -3.3719    3.8397   -2.0846 H       1  LIG1        0.0618
     52 H          -1.7407    2.9875   -0.4299 H       1  LIG1        0.0636
     53 H          -6.0593   -4.0747    2.5908 H       1  LIG1        0.1453
     54 H          -6.3481   -2.3436    2.7812 H       1  LIG1        0.1453
     55 H          -1.1141   -1.9144    3.2200 H       1  LIG1        0.1424
     56 H          -0.9307   -3.2467    1.9919 H       1  LIG1        0.1424
@<TRIPOS>BOND
     1     1     2    1
     2     2     3    1
     3     3     4    1
     4     4     5    1
     5     5     6   am
     6     6     7    2
     7     6     8    1
     8     8     9    1
     9     9    10   ar
    10    10    11   ar
    11    11    12   ar
    12    12    13   ar
    13    13    14   ar
    14    12    15    1
    15     8    16    1
    16    16    17    1
    17    17    18   ar
    18    18    19   ar
    19    19    20   ar
    20    20    21   ar
    21    21    22   ar
    22    16    23   am
    23    23    24    2
    24    23    25    1
    25    25    26   ar
    26    26    27   ar
    27    27    28   ar
    28    28    29   ar
    29    27    30    1
    30    30    31    2
    31    30    32   am
    32    26    33    1
    33    14     9   ar
    34    22    17   ar
    35    29    25   ar
    36     1    34    1
    37     1    35    1
    38     1    36    1
    39     3    37    1
    40     3    38    1
    41     4    39    1
    42     4    40    1
    43     5    41    1
    44     8    42    1
    45    10    43    1
    46    11    44    1
    47    13    45    1
    48    14    46    1
    49    15    47    1
    50    18    48    1
    51    19    49    1
    52    20    50    1
    53    21    51    1
    54    22    52    1
    55    32    53    1
    56    32    54    1
    57    33    55    1
    58    33    56    1
@<TRIPOS>MOLECULE
C12467348
 65 67 0 0 0
SMALL
GASTEIGER

@<TRIPOS>ATOM
      1 C          -0.6847   -2.3453   -6.1438 C.3     1  LIG1       -0.0397
      2 C          -0.6373   -1.8273   -4.7404 C.ar    1  LIG1       -0.0501
      3 C          -0.6934   -2.6608   -3.6620 C.ar    1  LIG1       -0.0571
      4 C          -0.6454   -2.1016   -2.4212 C.ar    1  LIG1       -0.0397
      5 C          -0.5405   -0.7175   -2.1837 C.ar    1  LIG1        0.0407
      6 C          -0.4887    0.0701   -3.2812 C.ar    1  LIG1       -0.0287
      7 C          -0.5356   -0.4727   -4.5710 C.ar    1  LIG1       -0.0542
      8 C          -0.4014    1.5312   -3.1907 C.3     1  LIG1       -0.0379
      9 N          -0.5051   -0.2871   -0.7915 N.am    1  LIG1       -0.2506
     10 C           0.6033    0.4241   -0.3275 C.3     1  LIG1        0.1323
     11 C           0.5222    1.8244    0.0697 C.ar    1  LIG1       -0.0176
     12 C           1.7428    2.5333    0.0997 C.ar    1  LIG1       -0.0529
     13 C           1.7930    3.8647    0.4563 C.ar    1  LIG1       -0.0196
     14 C           0.6711    4.5722    0.7973 C.ar    1  LIG1        0.1201
     15 C          -0.5408    3.9043    0.7733 C.ar    1  LIG1       -0.0196
     16 C          -0.5493    2.5886    0.4168 C.ar    1  LIG1       -0.0529
     17 O           0.6471    5.9117    1.1741 O.3     1  LIG1       -0.4951
     18 C          -0.5203    6.6014    1.4884 C.3     1  LIG1        0.0788
     19 C           1.5420   -0.3086    0.5786 C.2     1  LIG1        0.2385
     20 O           2.3674    0.3225    1.3054 O.2     1  LIG1       -0.2734
     21 N           1.6053   -1.7187    0.7050 N.am    1  LIG1       -0.3113
     22 C           2.5311   -2.4206    1.5689 C.3     1  LIG1        0.0351
     23 C           3.9695   -2.1875    1.1835 C.3     1  LIG1        0.0628
     24 O           4.7653   -2.9126    2.0838 O.3     1  LIG1       -0.3814
     25 C           6.1206   -2.7545    1.7941 C.3     1  LIG1        0.0365
     26 C          -1.6346   -0.6880   -0.0834 C.2     1  LIG1        0.2617
     27 O          -2.6475   -1.1693   -0.7777 O.2     1  LIG1       -0.2689
     28 C          -1.9222   -0.6836    1.3528 C.ar    1  LIG1        0.1156
     29 C          -3.0899   -1.0992    1.9708 C.ar    1  LIG1        0.0765
     30 C          -3.1337   -1.0207    3.3021 C.ar    1  LIG1        0.1554
     31 N          -2.0637   -0.5536    3.9444 N.ar    1  LIG1       -0.2031
     32 S          -0.9945   -0.2207    2.7204 S.2     1  LIG1        0.0190
     33 C          -4.3223   -1.4311    4.1076 C.2     1  LIG1        0.2624
     34 O          -5.3650   -1.8865    3.5733 O.2     1  LIG1       -0.2687
     35 N          -4.3254   -1.3256    5.5046 N.am    1  LIG1       -0.3240
     36 N          -4.2051   -1.5961    1.1748 N.pl3   1  LIG1       -0.3551
     37 H          -0.3385   -3.3799   -6.1666 H       1  LIG1        0.0278
     38 H           0.0178   -1.7364   -6.7332 H       1  LIG1        0.0278
     39 H          -1.7317   -2.2333   -6.5371 H       1  LIG1        0.0278
     40 H          -0.7739   -3.7170   -3.7985 H       1  LIG1        0.0621
     41 H          -0.6884   -2.7257   -1.5271 H       1  LIG1        0.0636
     42 H          -0.4868    0.1991   -5.4424 H       1  LIG1        0.0623
     43 H           0.5823    1.9541   -3.0201 H       1  LIG1        0.0278
     44 H          -0.7193    1.9526   -4.1961 H       1  LIG1        0.0278
     45 H          -1.2036    1.9492   -2.5145 H       1  LIG1        0.0278
     46 H           1.3458    0.5260   -1.2791 H       1  LIG1        0.0651
     47 H           2.6792    2.0819   -0.1728 H       1  LIG1        0.0622
     48 H           2.7329    4.4220    0.4832 H       1  LIG1        0.0654
     49 H          -1.4727    4.4021    1.0305 H       1  LIG1        0.0654
     50 H          -1.5213    2.0948    0.3876 H       1  LIG1        0.0622
     51 H          -0.8400    6.2956    2.5031 H       1  LIG1        0.0660
     52 H          -0.3542    7.6990    1.4485 H       1  LIG1        0.0660
     53 H          -1.3213    6.4130    0.7257 H       1  LIG1        0.0660
     54 H           0.9441   -2.3024    0.1531 H       1  LIG1        0.1488
     55 H           2.3523   -3.5135    1.5406 H       1  LIG1        0.0484
     56 H           2.4217   -2.0745    2.6295 H       1  LIG1        0.0484
     57 H           4.2621   -1.1450    1.2636 H       1  LIG1        0.0575
     58 H           4.1501   -2.5534    0.1310 H       1  LIG1        0.0575
     59 H           6.3727   -1.6989    1.8666 H       1  LIG1        0.0523
     60 H           6.6757   -3.3166    2.5881 H       1  LIG1        0.0523
     61 H           6.3369   -3.2095    0.7935 H       1  LIG1        0.0523
     62 H          -4.1136   -2.1537    6.0979 H       1  LIG1        0.1453
     63 H          -4.5363   -0.4290    5.9937 H       1  LIG1        0.1453
     64 H          -4.9327   -0.9527    0.8114 H       1  LIG1        0.1424
     65 H          -4.2733   -2.6071    0.9682 H       1  LIG1        0.1424
@<TRIPOS>BOND
     1     1     2    1
     2     2     3   ar
     3     3     4   ar
     4     4     5   ar
     5     5     6   ar
     6     6     7   ar
     7     6     8    1
     8     5     9    1
     9     9    10    1
    10    10    11    1
    11    11    12   ar
    12    12    13   ar
    13    13    14   ar
    14    14    15   ar
    15    15    16   ar
    16    14    17    1
    17    17    18    1
    18    10    19    1
    19    19    20    2
    20    19    21   am
    21    21    22    1
    22    22    23    1
    23    23    24    1
    24    24    25    1
    25     9    26   am
    26    26    27    2
    27    26    28    1
    28    28    29   ar
    29    29    30   ar
    30    30    31   ar
    31    31    32   ar
    32    30    33    1
    33    33    34    2
    34    33    35   am
    35    29    36    1
    36     7     2   ar
    37    16    11   ar
    38    32    28   ar
    39     1    37    1
    40     1    38    1
    41     1    39    1
    42     3    40    1
    43     4    41    1
    44     7    42    1
    45     8    43    1
    46     8    44    1
    47     8    45    1
    48    10    46    1
    49    12    47    1
    50    13    48    1
    51    15    49    1
    52    16    50    1
    53    18    51    1
    54    18    52    1
    55    18    53    1
    56    21    54    1
    57    22    55    1
    58    22    56    1
    59    23    57    1
    60    23    58    1
    61    25    59    1
    62    25    60    1
    63    25    61    1
    64    35    62    1
    65    35    63    1
    66    36    64    1
    67    36    65    1
@<TRIPOS>MOLECULE
C12467587
 55 57 0 0 0
SMALL
GASTEIGER

@<TRIPOS>ATOM
      1 C           1.9794   -2.9544    3.6991 C.3     1  LIG1       -0.0064
      2 C           1.8904   -2.1718    2.4212 C.ar    1  LIG1        0.1023
      3 C           2.7039   -2.4318    1.3363 C.ar    1  LIG1       -0.0206
      4 C           2.3366   -1.5222    0.3594 C.ar    1  LIG1       -0.0181
      5 C           1.3300   -0.7561    0.8796 C.ar    1  LIG1        0.1349
      6 O           1.1098   -1.1902    2.1062 O.2     1  LIG1       -0.4624
      7 C           0.6109    0.3732    0.1900 C.3     1  LIG1        0.1646
      8 C           1.3000    0.6992   -1.0491 C.2     1  LIG1        0.2416
      9 O           0.7982    0.7120   -2.2063 O.2     1  LIG1       -0.2733
     10 N           2.7098    1.0427   -0.9037 N.am    1  LIG1       -0.3112
     11 C           3.4693    1.3789   -2.0767 C.3     1  LIG1        0.0351
     12 C           4.8858    1.6934   -1.6740 C.3     1  LIG1        0.0628
     13 O           5.6489    2.0237   -2.7927 O.3     1  LIG1       -0.3814
     14 C           6.9434    2.2941   -2.3189 C.3     1  LIG1        0.0365
     15 N          -0.8047    0.1381    0.0574 N.am    1  LIG1       -0.2478
     16 C          -1.2955   -0.8754   -0.8317 C.ar    1  LIG1        0.0380
     17 C          -1.1254   -2.1941   -0.4972 C.ar    1  LIG1       -0.0375
     18 C          -1.5671   -3.1963   -1.3710 C.ar    1  LIG1       -0.0247
     19 C          -2.1643   -2.8254   -2.5502 C.ar    1  LIG1        0.1235
     20 C          -2.3429   -1.4963   -2.8991 C.ar    1  LIG1       -0.0247
     21 C          -1.9013   -0.5452   -2.0254 C.ar    1  LIG1       -0.0375
     22 F          -2.6046   -3.7662   -3.4230 F       1  LIG1       -0.2055
     23 C          -1.6769    0.9155    0.8399 C.2     1  LIG1        0.2618
     24 O          -1.1913    1.8986    1.4673 O.2     1  LIG1       -0.2689
     25 C          -3.1056    0.6789    0.9927 C.ar    1  LIG1        0.1156
     26 C          -4.0032    1.4353    1.7226 C.ar    1  LIG1        0.0765
     27 C          -5.2738    1.0002    1.7447 C.ar    1  LIG1        0.1554
     28 N          -5.5569   -0.1137    1.0664 N.ar    1  LIG1       -0.2031
     29 S          -4.1020   -0.5719    0.3988 S.2     1  LIG1        0.0190
     30 C          -6.3727    1.6971    2.4833 C.2     1  LIG1        0.2624
     31 O          -6.1716    2.7408    3.1302 O.2     1  LIG1       -0.2687
     32 N          -7.6887    1.1862    2.4698 N.am    1  LIG1       -0.3240
     33 N          -3.5629    2.6401    2.4199 N.pl3   1  LIG1       -0.3551
     34 H           0.9933   -3.3166    3.9943 H       1  LIG1        0.0308
     35 H           2.6570   -3.8106    3.5956 H       1  LIG1        0.0308
     36 H           2.4209   -2.2713    4.4764 H       1  LIG1        0.0308
     37 H           3.4871   -3.1930    1.2361 H       1  LIG1        0.0652
     38 H           2.8081   -1.4815   -0.6353 H       1  LIG1        0.0653
     39 H           0.7491    1.2258    0.9323 H       1  LIG1        0.0683
     40 H           3.1520    1.0436    0.0258 H       1  LIG1        0.1488
     41 H           3.4724    0.5559   -2.8278 H       1  LIG1        0.0484
     42 H           3.0102    2.2665   -2.5435 H       1  LIG1        0.0484
     43 H           4.9369    2.5563   -0.9816 H       1  LIG1        0.0575
     44 H           5.3604    0.8249   -1.1654 H       1  LIG1        0.0575
     45 H           7.3801    1.3985   -1.7987 H       1  LIG1        0.0523
     46 H           6.9338    3.1144   -1.5723 H       1  LIG1        0.0523
     47 H           7.5620    2.5291   -3.2048 H       1  LIG1        0.0523
     48 H          -0.6707   -2.5334    0.4138 H       1  LIG1        0.0637
     49 H          -1.4264   -4.2185   -1.0958 H       1  LIG1        0.0647
     50 H          -2.8257   -1.2649   -3.8529 H       1  LIG1        0.0647
     51 H          -2.0365    0.4944   -2.2617 H       1  LIG1        0.0637
     52 H          -8.1572    1.0416    3.3992 H       1  LIG1        0.1453
     53 H          -8.2074    0.9508    1.5882 H       1  LIG1        0.1453
     54 H          -3.2107    3.4331    1.8476 H       1  LIG1        0.1424
     55 H          -3.5936    2.7180    3.4420 H       1  LIG1        0.1424
@<TRIPOS>BOND
     1     1     2    1
     2     2     3   ar
     3     3     4   ar
     4     4     5   ar
     5     5     6   ar
     6     5     7    1
     7     7     8    1
     8     8     9    2
     9     8    10   am
    10    10    11    1
    11    11    12    1
    12    12    13    1
    13    13    14    1
    14     7    15    1
    15    15    16    1
    16    16    17   ar
    17    17    18   ar
    18    18    19   ar
    19    19    20   ar
    20    20    21   ar
    21    19    22    1
    22    15    23   am
    23    23    24    2
    24    23    25    1
    25    25    26   ar
    26    26    27   ar
    27    27    28   ar
    28    28    29   ar
    29    27    30    1
    30    30    31    2
    31    30    32   am
    32    26    33    1
    33     6     2   ar
    34    21    16   ar
    35    29    25   ar
    36     1    34    1
    37     1    35    1
    38     1    36    1
    39     3    37    1
    40     4    38    1
    41     7    39    1
    42    10    40    1
    43    11    41    1
    44    11    42    1
    45    12    43    1
    46    12    44    1
    47    14    45    1
    48    14    46    1
    49    14    47    1
    50    17    48    1
    51    18    49    1
    52    20    50    1
    53    21    51    1
    54    32    52    1
    55    32    53    1
    56    33    54    1
    57    33    55    1
@<TRIPOS>MOLECULE
C12473203
 65 68 0 0 0
SMALL
GASTEIGER

@<TRIPOS>ATOM
      1 C          -3.3748   -3.8428    2.5118 C.3     1  LIG1       -0.0394
      2 C          -2.9244   -3.3527    1.1536 C.ar    1  LIG1       -0.0458
      3 C          -3.0703   -4.1568    0.0461 C.ar    1  LIG1       -0.0585
      4 C          -2.6643   -3.7169   -1.1920 C.ar    1  LIG1       -0.0597
      5 C          -2.1021   -2.4313   -1.2803 C.ar    1  LIG1       -0.0400
      6 C          -1.9495   -1.6233   -0.1987 C.ar    1  LIG1        0.0409
      7 C          -2.3666   -2.0880    1.0401 C.ar    1  LIG1       -0.0261
      8 C          -2.2719   -1.3122    2.3039 C.3     1  LIG1       -0.0377
      9 N          -1.3723   -0.2956   -0.2911 N.am    1  LIG1       -0.2506
     10 C          -0.0104   -0.0886   -0.6309 C.3     1  LIG1        0.1323
     11 C           0.2246   -0.3080   -2.1216 C.ar    1  LIG1       -0.0177
     12 C          -0.4665    0.4403   -3.0480 C.ar    1  LIG1       -0.0536
     13 C          -0.2762    0.2673   -4.3920 C.ar    1  LIG1       -0.0261
     14 C           0.6151   -0.6641   -4.8297 C.ar    1  LIG1        0.1234
     15 C           1.3213   -1.4286   -3.9114 C.ar    1  LIG1       -0.0261
     16 C           1.1204   -1.2452   -2.5418 C.ar    1  LIG1       -0.0536
     17 F           0.8033   -0.8349   -6.1735 F       1  LIG1       -0.2055
     18 C           1.0198   -0.8224    0.0975 C.2     1  LIG1        0.2385
     19 O           0.8814   -1.8241    0.8326 O.2     1  LIG1       -0.2734
     20 N           2.3858   -0.3610   -0.0169 N.am    1  LIG1       -0.3110
     21 C           3.4815   -1.0011    0.6633 C.3     1  LIG1        0.0379
     22 C           4.7673   -0.2902    0.3346 C.3     1  LIG1        0.0742
     23 C           5.8680   -0.9057    1.1533 C.3     1  LIG1       -0.0231
     24 C           6.4483    0.2781    1.8901 C.3     1  LIG1       -0.0271
     25 C           5.9651    1.4413    1.0547 C.3     1  LIG1        0.0482
     26 O           4.6705    1.0399    0.7384 O.3     1  LIG1       -0.3750
     27 C          -2.2879    0.7223    0.0038 C.2     1  LIG1        0.2617
     28 O          -3.5330    0.3856    0.1465 O.2     1  LIG1       -0.2689
     29 C          -2.0330    2.1493    0.1820 C.ar    1  LIG1        0.1156
     30 C          -2.9915    3.0985    0.4716 C.ar    1  LIG1        0.0765
     31 C          -2.5660    4.3723    0.6150 C.ar    1  LIG1        0.1554
     32 N          -1.2598    4.5981    0.4635 N.ar    1  LIG1       -0.2031
     33 S          -0.6192    3.1008    0.1313 S.2     1  LIG1        0.0190
     34 C          -3.4627    5.5024    0.9269 C.2     1  LIG1        0.2624
     35 O          -4.6919    5.3497    1.0752 O.2     1  LIG1       -0.2687
     36 N          -2.9258    6.7854    1.0623 N.am    1  LIG1       -0.3240
     37 N          -4.4036    2.7393    0.6226 N.pl3   1  LIG1       -0.3551
     38 H          -2.5053   -4.2302    3.0800 H       1  LIG1        0.0278
     39 H          -3.8359   -3.0342    3.0769 H       1  LIG1        0.0278
     40 H          -4.0778   -4.6946    2.3726 H       1  LIG1        0.0278
     41 H          -3.5174   -5.1534    0.1764 H       1  LIG1        0.0620
     42 H          -2.7780   -4.3489   -2.0624 H       1  LIG1        0.0618
     43 H          -1.8213   -2.1581   -2.2768 H       1  LIG1        0.0636
     44 H          -1.5481   -0.5048    2.2764 H       1  LIG1        0.0278
     45 H          -1.9036   -2.0377    3.0883 H       1  LIG1        0.0278
     46 H          -3.2541   -0.9699    2.6690 H       1  LIG1        0.0278
     47 H           0.2953    1.0030   -0.5645 H       1  LIG1        0.0651
     48 H          -1.1766    1.1826   -2.7095 H       1  LIG1        0.0622
     49 H          -0.8530    0.8888   -5.0699 H       1  LIG1        0.0646
     50 H           2.0074   -2.1435   -4.3118 H       1  LIG1        0.0646
     51 H           1.7063   -1.8895   -1.9092 H       1  LIG1        0.0622
     52 H           2.5689    0.4680   -0.6179 H       1  LIG1        0.1488
     53 H           3.5005   -2.0644    0.3671 H       1  LIG1        0.0487
     54 H           3.3062   -0.9372    1.7748 H       1  LIG1        0.0487
     55 H           4.9907   -0.3332   -0.7468 H       1  LIG1        0.0611
     56 H           5.4831   -1.6709    1.8603 H       1  LIG1        0.0291
     57 H           6.6761   -1.3126    0.4896 H       1  LIG1        0.0291
     58 H           7.5568    0.2413    1.9195 H       1  LIG1        0.0288
     59 H           5.9814    0.3408    2.8978 H       1  LIG1        0.0288
     60 H           6.5618    1.5295    0.1368 H       1  LIG1        0.0560
     61 H           5.9094    2.3914    1.6332 H       1  LIG1        0.0560
     62 H          -2.6987    7.1566    2.0014 H       1  LIG1        0.1453
     63 H          -2.7504    7.3742    0.2313 H       1  LIG1        0.1453
     64 H          -4.9190    2.4988   -0.2356 H       1  LIG1        0.1424
     65 H          -4.8532    2.7314    1.5600 H       1  LIG1        0.1424
@<TRIPOS>BOND
     1     1     2    1
     2     2     3   ar
     3     3     4   ar
     4     4     5   ar
     5     5     6   ar
     6     6     7   ar
     7     7     8    1
     8     6     9    1
     9     9    10    1
    10    10    11    1
    11    11    12   ar
    12    12    13   ar
    13    13    14   ar
    14    14    15   ar
    15    15    16   ar
    16    14    17    1
    17    10    18    1
    18    18    19    2
    19    18    20   am
    20    20    21    1
    21    21    22    1
    22    22    23    1
    23    23    24    1
    24    24    25    1
    25    25    26    1
    26     9    27   am
    27    27    28    2
    28    27    29    1
    29    29    30   ar
    30    30    31   ar
    31    31    32   ar
    32    32    33   ar
    33    31    34    1
    34    34    35    2
    35    34    36   am
    36    30    37    1
    37     7     2   ar
    38    16    11   ar
    39    26    22    1
    40    33    29   ar
    41     1    38    1
    42     1    39    1
    43     1    40    1
    44     3    41    1
    45     4    42    1
    46     5    43    1
    47     8    44    1
    48     8    45    1
    49     8    46    1
    50    10    47    1
    51    12    48    1
    52    13    49    1
    53    15    50    1
    54    16    51    1
    55    20    52    1
    56    21    53    1
    57    21    54    1
    58    22    55    1
    59    23    56    1
    60    23    57    1
    61    24    58    1
    62    24    59    1
    63    25    60    1
    64    25    61    1
    65    36    62    1
    66    36    63    1
    67    37    64    1
    68    37    65    1
@<TRIPOS>MOLECULE
C12473953
 66 69 0 0 0
SMALL
GASTEIGER

@<TRIPOS>ATOM
      1 C           1.1540   -2.0640   -4.2921 C.3     1  LIG1       -0.0394
      2 C           1.2754   -2.3114   -2.8386 C.ar    1  LIG1       -0.0458
      3 C           1.9144   -3.4270   -2.3540 C.ar    1  LIG1       -0.0585
      4 C           2.0093   -3.6306   -0.9922 C.ar    1  LIG1       -0.0597
      5 C           1.4628   -2.7135   -0.1138 C.ar    1  LIG1       -0.0400
      6 C           0.8118   -1.5780   -0.5616 C.ar    1  LIG1        0.0409
      7 C           0.7369   -1.4087   -1.9244 C.ar    1  LIG1       -0.0261
      8 C           0.0680   -0.2380   -2.5019 C.3     1  LIG1       -0.0377
      9 N           0.2584   -0.6810    0.4040 N.am    1  LIG1       -0.2506
     10 C          -0.7989   -1.2057    1.2537 C.3     1  LIG1        0.1323
     11 C          -0.3086   -1.7121    2.5695 C.ar    1  LIG1       -0.0176
     12 C          -0.8427   -2.9277    3.0326 C.ar    1  LIG1       -0.0529
     13 C          -0.4738   -3.5025    4.2141 C.ar    1  LIG1       -0.0199
     14 C           0.4548   -2.8815    4.9915 C.ar    1  LIG1        0.1169
     15 C           1.0030   -1.7018    4.5870 C.ar    1  LIG1       -0.0199
     16 C           0.6061   -1.1232    3.3599 C.ar    1  LIG1       -0.0529
     17 O           0.8251   -3.4758    6.1935 O.3     1  LIG1       -0.5068
     18 C          -1.9848   -0.4168    1.4143 C.2     1  LIG1        0.2385
     19 O          -2.6128   -0.5032    2.5289 O.2     1  LIG1       -0.2734
     20 N          -2.5336    0.4506    0.4611 N.am    1  LIG1       -0.3110
     21 C          -3.7505    1.2375    0.7256 C.3     1  LIG1        0.0379
     22 C          -4.1794    2.0051   -0.4794 C.3     1  LIG1        0.0742
     23 C          -4.4525    1.0789   -1.6578 C.3     1  LIG1       -0.0231
     24 C          -4.5717    2.0866   -2.7761 C.3     1  LIG1       -0.0271
     25 C          -3.8253    3.2813   -2.2182 C.3     1  LIG1        0.0482
     26 O          -3.2639    2.8914   -0.9996 O.3     1  LIG1       -0.3750
     27 C           0.7994    0.6154    0.6251 C.2     1  LIG1        0.2617
     28 O           0.1388    1.5354    1.2000 O.2     1  LIG1       -0.2689
     29 C           2.1734    0.9831    0.2108 C.ar    1  LIG1        0.1156
     30 C           2.7811    2.1982    0.3439 C.ar    1  LIG1        0.0765
     31 C           4.0762    2.2727   -0.0617 C.ar    1  LIG1        0.1554
     32 N           4.6157    1.1515   -0.5516 N.ar    1  LIG1       -0.2031
     33 S           3.3977    0.0096   -0.4652 S.2     1  LIG1        0.0190
     34 C           4.9184    3.5113    0.0071 C.2     1  LIG1        0.2624
     35 O           4.4249    4.5810    0.4398 O.2     1  LIG1       -0.2687
     36 N           6.2683    3.4952   -0.4087 N.am    1  LIG1       -0.3240
     37 N           2.0723    3.3588    0.8782 N.pl3   1  LIG1       -0.3551
     38 H           0.0894   -1.9111   -4.5075 H       1  LIG1        0.0278
     39 H           1.7760   -1.1607   -4.5195 H       1  LIG1        0.0278
     40 H           1.5815   -2.8926   -4.8626 H       1  LIG1        0.0278
     41 H           2.3604   -4.1674   -3.0257 H       1  LIG1        0.0620
     42 H           2.5066   -4.5000   -0.5828 H       1  LIG1        0.0618
     43 H           1.5352   -2.8721    0.9478 H       1  LIG1        0.0636
     44 H          -0.1829    0.5717   -1.8310 H       1  LIG1        0.0278
     45 H           0.6484    0.1290   -3.4061 H       1  LIG1        0.0278
     46 H          -0.8960   -0.6175   -2.9526 H       1  LIG1        0.0278
     47 H          -1.0900   -2.1881    0.6906 H       1  LIG1        0.0651
     48 H          -1.5856   -3.4313    2.4179 H       1  LIG1        0.0622
     49 H          -0.9483   -4.4505    4.4833 H       1  LIG1        0.0654
     50 H           1.7365   -1.1797    5.1699 H       1  LIG1        0.0654
     51 H           1.0684   -0.1965    3.0848 H       1  LIG1        0.0622
     52 H           1.5069   -3.0561    6.8039 H       1  LIG1        0.2921
     53 H          -2.1363    0.6038   -0.4883 H       1  LIG1        0.1488
     54 H          -3.6532    1.8493    1.6351 H       1  LIG1        0.0487
     55 H          -4.5704    0.5003    0.9501 H       1  LIG1        0.0487
     56 H          -5.1648    2.4932   -0.2663 H       1  LIG1        0.0611
     57 H          -5.4276    0.5481   -1.5165 H       1  LIG1        0.0291
     58 H          -3.6332    0.3868   -1.8470 H       1  LIG1        0.0291
     59 H          -4.1063    1.7543   -3.7168 H       1  LIG1        0.0288
     60 H          -5.6589    2.3509   -2.9075 H       1  LIG1        0.0288
     61 H          -3.0477    3.5971   -2.9550 H       1  LIG1        0.0560
     62 H          -4.5580    4.0915   -2.0252 H       1  LIG1        0.0560
     63 H           7.0608    3.7451    0.2184 H       1  LIG1        0.1453
     64 H           6.4889    3.2231   -1.3844 H       1  LIG1        0.1453
     65 H           1.3314    3.8354    0.3326 H       1  LIG1        0.1424
     66 H           2.3207    3.7031    1.8169 H       1  LIG1        0.1424
@<TRIPOS>BOND
     1     1     2    1
     2     2     3   ar
     3     3     4   ar
     4     4     5   ar
     5     5     6   ar
     6     6     7   ar
     7     7     8    1
     8     6     9    1
     9     9    10    1
    10    10    11    1
    11    11    12   ar
    12    12    13   ar
    13    13    14   ar
    14    14    15   ar
    15    15    16   ar
    16    14    17    1
    17    10    18    1
    18    18    19    2
    19    18    20   am
    20    20    21    1
    21    21    22    1
    22    22    23    1
    23    23    24    1
    24    24    25    1
    25    25    26    1
    26     9    27   am
    27    27    28    2
    28    27    29    1
    29    29    30   ar
    30    30    31   ar
    31    31    32   ar
    32    32    33   ar
    33    31    34    1
    34    34    35    2
    35    34    36   am
    36    30    37    1
    37     7     2   ar
    38    16    11   ar
    39    26    22    1
    40    33    29   ar
    41     1    38    1
    42     1    39    1
    43     1    40    1
    44     3    41    1
    45     4    42    1
    46     5    43    1
    47     8    44    1
    48     8    45    1
    49     8    46    1
    50    10    47    1
    51    12    48    1
    52    13    49    1
    53    15    50    1
    54    16    51    1
    55    17    52    1
    56    20    53    1
    57    21    54    1
    58    21    55    1
    59    22    56    1
    60    23    57    1
    61    23    58    1
    62    24    59    1
    63    24    60    1
    64    25    61    1
    65    25    62    1
    66    36    63    1
    67    36    64    1
    68    37    65    1
    69    37    66    1
@<TRIPOS>MOLECULE
C12473977
 66 69 0 0 0
SMALL
GASTEIGER

@<TRIPOS>ATOM
      1 C           3.5503    4.6653    0.1089 C.3     1  LIG1       -0.0397
      2 C           2.8276    3.3639    0.1282 C.ar    1  LIG1       -0.0501
      3 C           2.9002    2.4885    1.1781 C.ar    1  LIG1       -0.0571
      4 C           2.2088    1.3028    1.1383 C.ar    1  LIG1       -0.0397
      5 C           1.4240    0.9517    0.0564 C.ar    1  LIG1        0.0407
      6 C           1.3479    1.8078   -0.9863 C.ar    1  LIG1       -0.0287
      7 C           2.0579    3.0358   -0.9558 C.ar    1  LIG1       -0.0542
      8 C           0.5981    1.5666   -2.2171 C.3     1  LIG1       -0.0379
      9 N           0.7210   -0.2718    0.1643 N.am    1  LIG1       -0.2506
     10 C          -0.4486   -0.4307    0.9868 C.3     1  LIG1        0.1323
     11 C          -0.3202   -0.0928    2.4026 C.ar    1  LIG1       -0.0176
     12 C           0.0590   -1.0342    3.3582 C.ar    1  LIG1       -0.0529
     13 C           0.1652   -0.7324    4.6934 C.ar    1  LIG1       -0.0199
     14 C          -0.1001    0.5337    5.1720 C.ar    1  LIG1        0.1169
     15 C          -0.4752    1.4676    4.2315 C.ar    1  LIG1       -0.0199
     16 C          -0.5844    1.1758    2.8920 C.ar    1  LIG1       -0.0529
     17 O           0.0045    0.8483    6.5177 O.3     1  LIG1       -0.5068
     18 C          -1.7626   -0.0389    0.4189 C.2     1  LIG1        0.2385
     19 O          -2.5811    0.5007    1.2445 O.2     1  LIG1       -0.2734
     20 N          -2.1892   -0.2065   -0.9055 N.am    1  LIG1       -0.3110
     21 C          -3.4213    0.1234   -1.5157 C.3     1  LIG1        0.0379
     22 C          -4.6429   -0.5616   -1.0327 C.3     1  LIG1        0.0742
     23 C          -5.8608    0.0167   -1.7432 C.3     1  LIG1       -0.0231
     24 C          -7.0101   -0.3975   -0.8458 C.3     1  LIG1       -0.0271
     25 C          -6.3000   -0.7249    0.4463 C.3     1  LIG1        0.0482
     26 O          -4.9827   -0.3836    0.2774 O.3     1  LIG1       -0.3750
     27 C           1.2522   -1.4144   -0.4597 C.2     1  LIG1        0.2617
     28 O           0.5025   -2.4617   -0.4427 O.2     1  LIG1       -0.2689
     29 C           2.5658   -1.5192   -1.1154 C.ar    1  LIG1        0.1156
     30 C           3.0792   -2.6276   -1.7491 C.ar    1  LIG1        0.0765
     31 C           4.3227   -2.4994   -2.2569 C.ar    1  LIG1        0.1554
     32 N           4.9341   -1.3280   -2.1020 N.ar    1  LIG1       -0.2031
     33 S           3.8297   -0.3938   -1.2683 S.2     1  LIG1        0.0190
     34 C           5.0281   -3.5965   -2.9716 C.2     1  LIG1        0.2624
     35 O           4.4765   -4.6921   -3.1259 O.2     1  LIG1       -0.2687
     36 N           6.3277   -3.4140   -3.4839 N.am    1  LIG1       -0.3240
     37 N           2.2778   -3.8443   -1.8377 N.pl3   1  LIG1       -0.3551
     38 H           2.8077    5.4680    0.1393 H       1  LIG1        0.0278
     39 H           4.2920    4.7541    0.9195 H       1  LIG1        0.0278
     40 H           4.0816    4.7412   -0.8531 H       1  LIG1        0.0278
     41 H           3.5090    2.7359    2.0457 H       1  LIG1        0.0621
     42 H           2.3040    0.6044    1.9945 H       1  LIG1        0.0636
     43 H           1.9979    3.7196   -1.7833 H       1  LIG1        0.0623
     44 H          -0.3720    2.1190   -2.1653 H       1  LIG1        0.0278
     45 H           1.1370    2.0000   -3.1001 H       1  LIG1        0.0278
     46 H           0.4479    0.4932   -2.4509 H       1  LIG1        0.0278
     47 H          -0.6032   -1.5928    0.9997 H       1  LIG1        0.0651
     48 H           0.2784   -2.0557    3.0108 H       1  LIG1        0.0622
     49 H           0.4622   -1.4675    5.4424 H       1  LIG1        0.0654
     50 H          -0.6947    2.4854    4.5790 H       1  LIG1        0.0654
     51 H          -0.8807    1.9618    2.2100 H       1  LIG1        0.0622
     52 H           0.9138    1.1799    6.8326 H       1  LIG1        0.2921
     53 H          -1.4514   -0.6706   -1.5522 H       1  LIG1        0.1488
     54 H          -3.3260    0.0794   -2.6275 H       1  LIG1        0.0487
     55 H          -3.5967    1.2362   -1.3146 H       1  LIG1        0.0487
     56 H          -4.5630   -1.6616   -1.2309 H       1  LIG1        0.0611
     57 H          -5.7583    1.1207   -1.7074 H       1  LIG1        0.0291
     58 H          -5.9293   -0.3970   -2.7500 H       1  LIG1        0.0291
     59 H          -7.5405   -1.2922   -1.2488 H       1  LIG1        0.0288
     60 H          -7.7074    0.4453   -0.6786 H       1  LIG1        0.0288
     61 H          -6.4545   -1.8197    0.6602 H       1  LIG1        0.0560
     62 H          -6.7500   -0.1247    1.2737 H       1  LIG1        0.0560
     63 H           6.4618   -2.8812   -4.3558 H       1  LIG1        0.1453
     64 H           7.1442   -3.8085   -2.9949 H       1  LIG1        0.1453
     65 H           2.3058   -4.4994   -1.0363 H       1  LIG1        0.1424
     66 H           1.7025   -4.0559   -2.6578 H       1  LIG1        0.1424
@<TRIPOS>BOND
     1     1     2    1
     2     2     3   ar
     3     3     4   ar
     4     4     5   ar
     5     5     6   ar
     6     6     7   ar
     7     6     8    1
     8     5     9    1
     9     9    10    1
    10    10    11    1
    11    11    12   ar
    12    12    13   ar
    13    13    14   ar
    14    14    15   ar
    15    15    16   ar
    16    14    17    1
    17    10    18    1
    18    18    19    2
    19    18    20   am
    20    20    21    1
    21    21    22    1
    22    22    23    1
    23    23    24    1
    24    24    25    1
    25    25    26    1
    26     9    27   am
    27    27    28    2
    28    27    29    1
    29    29    30   ar
    30    30    31   ar
    31    31    32   ar
    32    32    33   ar
    33    31    34    1
    34    34    35    2
    35    34    36   am
    36    30    37    1
    37     7     2   ar
    38    16    11   ar
    39    26    22    1
    40    33    29   ar
    41     1    38    1
    42     1    39    1
    43     1    40    1
    44     3    41    1
    45     4    42    1
    46     7    43    1
    47     8    44    1
    48     8    45    1
    49     8    46    1
    50    10    47    1
    51    12    48    1
    52    13    49    1
    53    15    50    1
    54    16    51    1
    55    17    52    1
    56    20    53    1
    57    21    54    1
    58    21    55    1
    59    22    56    1
    60    23    57    1
    61    23    58    1
    62    24    59    1
    63    24    60    1
    64    25    61    1
    65    25    62    1
    66    36    63    1
    67    36    64    1
    68    37    65    1
    69    37    66    1
@<TRIPOS>MOLECULE
C12479497
 63 65 0 0 0
SMALL
GASTEIGER

@<TRIPOS>ATOM
      1 C          -0.4293   -6.1906   -0.4412 C.3     1  LIG1       -0.0397
      2 C          -0.3534   -4.7649   -0.0358 C.ar    1  LIG1       -0.0504
      3 C          -1.0363   -3.8077   -0.7546 C.ar    1  LIG1       -0.0585
      4 C          -0.9643   -2.4783   -0.3751 C.ar    1  LIG1       -0.0561
      5 C          -0.2292   -2.0548    0.7072 C.ar    1  LIG1       -0.0182
      6 C           0.4502   -3.0594    1.4113 C.ar    1  LIG1       -0.0561
      7 C           0.3915   -4.3815    1.0514 C.ar    1  LIG1       -0.0585
      8 C          -0.1872   -0.6382    1.0887 C.3     1  LIG1        0.1281
      9 C          -1.5389   -0.0106    1.0540 C.2     1  LIG1        0.2381
     10 O          -2.5034   -0.6866    1.4667 O.2     1  LIG1       -0.2734
     11 N          -1.7678    1.2933    0.5834 N.am    1  LIG1       -0.3135
     12 C          -3.0602    1.9235    0.5305 C.3     1  LIG1        0.0119
     13 C          -3.9672    1.1439   -0.3755 C.3     1  LIG1       -0.0350
     14 C          -5.3039    1.8786   -0.3781 C.3     1  LIG1       -0.0453
     15 C          -6.2190    1.0874   -1.2955 C.3     1  LIG1       -0.0626
     16 C          -5.1651    3.2543   -0.9502 C.3     1  LIG1       -0.0626
     17 N           0.8215    0.1714    0.4125 N.am    1  LIG1       -0.2741
     18 C           0.7601    0.3306   -1.0082 C.3     1  LIG1        0.0740
     19 C           1.5471   -0.6873   -1.7771 C.ar    1  LIG1        0.1221
     20 C           2.5988   -1.4559   -1.3345 C.ar    1  LIG1       -0.0191
     21 C           3.0086   -2.2448   -2.3758 C.ar    1  LIG1       -0.0236
     22 C           2.1872   -1.9304   -3.4309 C.ar    1  LIG1        0.0921
     23 O           1.3538   -1.0176   -3.0285 O.2     1  LIG1       -0.4662
     24 C           1.7936    0.7594    1.2115 C.2     1  LIG1        0.2578
     25 O           1.7230    0.5089    2.4711 O.2     1  LIG1       -0.2693
     26 C           2.8956    1.6357    0.8052 C.ar    1  LIG1        0.1153
     27 C           3.8529    2.1849    1.6340 C.ar    1  LIG1        0.0765
     28 C           4.7657    2.9781    1.0487 C.ar    1  LIG1        0.1554
     29 N           4.6643    3.1615   -0.2719 N.ar    1  LIG1       -0.2031
     30 S           3.3371    2.2620   -0.7163 S.2     1  LIG1        0.0190
     31 C           5.8786    3.6624    1.7790 C.2     1  LIG1        0.2624
     32 O           6.0143    3.5210    3.0154 O.2     1  LIG1       -0.2687
     33 N           6.7966    4.4750    1.1154 N.am    1  LIG1       -0.3240
     34 N           3.8708    1.9160    3.0689 N.pl3   1  LIG1       -0.3551
     35 H          -0.0830   -6.3389   -1.4798 H       1  LIG1        0.0278
     36 H          -1.4687   -6.5930   -0.3330 H       1  LIG1        0.0278
     37 H           0.2592   -6.7855    0.2053 H       1  LIG1        0.0278
     38 H          -1.6113   -4.1497   -1.6037 H       1  LIG1        0.0620
     39 H          -1.5133   -1.7847   -0.9625 H       1  LIG1        0.0621
     40 H           1.0358   -2.7660    2.2643 H       1  LIG1        0.0621
     41 H           0.9116   -5.1580    1.5888 H       1  LIG1        0.0620
     42 H           0.0483   -0.6485    2.2109 H       1  LIG1        0.0648
     43 H          -0.9372    1.8749    0.2436 H       1  LIG1        0.1487
     44 H          -2.9752    2.9884    0.2169 H       1  LIG1        0.0462
     45 H          -3.4970    1.9941    1.5731 H       1  LIG1        0.0462
     46 H          -4.1129    0.1000   -0.1356 H       1  LIG1        0.0283
     47 H          -3.5816    1.2129   -1.4193 H       1  LIG1        0.0283
     48 H          -5.6811    1.9005    0.6499 H       1  LIG1        0.0296
     49 H          -5.7220    1.0508   -2.2954 H       1  LIG1        0.0232
     50 H          -6.2143    0.0454   -0.9146 H       1  LIG1        0.0232
     51 H          -7.2347    1.4907   -1.3474 H       1  LIG1        0.0232
     52 H          -4.8762    4.0124   -0.1692 H       1  LIG1        0.0232
     53 H          -6.1775    3.5543   -1.3363 H       1  LIG1        0.0232
     54 H          -4.4607    3.2678   -1.8036 H       1  LIG1        0.0232
     55 H          -0.3062    0.2105   -1.3813 H       1  LIG1        0.0545
     56 H           1.0433    1.3170   -1.4032 H       1  LIG1        0.0545
     57 H           3.0416   -1.4545   -0.3420 H       1  LIG1        0.0652
     58 H           3.8263   -2.9720   -2.3532 H       1  LIG1        0.0649
     59 H           2.2586   -2.3943   -4.4220 H       1  LIG1        0.1029
     60 H           7.3373    4.1568    0.2903 H       1  LIG1        0.1453
     61 H           6.9596    5.4487    1.4496 H       1  LIG1        0.1453
     62 H           4.1224    0.9666    3.4166 H       1  LIG1        0.1424
     63 H           3.6230    2.7142    3.6874 H       1  LIG1        0.1424
@<TRIPOS>BOND
     1     1     2    1
     2     2     3   ar
     3     3     4   ar
     4     4     5   ar
     5     5     6   ar
     6     6     7   ar
     7     5     8    1
     8     8     9    1
     9     9    10    2
    10     9    11   am
    11    11    12    1
    12    12    13    1
    13    13    14    1
    14    14    15    1
    15    14    16    1
    16     8    17    1
    17    17    18    1
    18    18    19    1
    19    19    20   ar
    20    20    21   ar
    21    21    22   ar
    22    22    23   ar
    23    17    24   am
    24    24    25    2
    25    24    26    1
    26    26    27   ar
    27    27    28   ar
    28    28    29   ar
    29    29    30   ar
    30    28    31    1
    31    31    32    2
    32    31    33   am
    33    27    34    1
    34     7     2   ar
    35    23    19   ar
    36    30    26   ar
    37     1    35    1
    38     1    36    1
    39     1    37    1
    40     3    38    1
    41     4    39    1
    42     6    40    1
    43     7    41    1
    44     8    42    1
    45    11    43    1
    46    12    44    1
    47    12    45    1
    48    13    46    1
    49    13    47    1
    50    14    48    1
    51    15    49    1
    52    15    50    1
    53    15    51    1
    54    16    52    1
    55    16    53    1
    56    16    54    1
    57    18    55    1
    58    18    56    1
    59    20    57    1
    60    21    58    1
    61    22    59    1
    62    33    60    1
    63    33    61    1
    64    34    62    1
    65    34    63    1
@<TRIPOS>MOLECULE
C12716025
 59 62 0 0 0
SMALL
GASTEIGER

@<TRIPOS>ATOM
      1 C           2.9851    4.5874    1.7934 C.ar    1  LIG1       -0.0544
      2 C           2.8894    3.2471    1.8601 C.ar    1  LIG1       -0.0500
      3 C           1.7435    2.6994    2.3284 C.ar    1  LIG1        0.0071
      4 S           0.7957    4.1171    2.6759 S.2     1  LIG1       -0.1000
      5 C           1.9069    5.3183    2.2075 C.ar    1  LIG1       -0.0240
      6 C           1.3318    1.2978    2.5480 C.3     1  LIG1        0.0473
      7 N           1.2394    0.4821    1.3165 N.am    1  LIG1       -0.2766
      8 C           0.0005    0.3931    0.6094 C.3     1  LIG1        0.1280
      9 C          -0.5215    1.6798    0.0971 C.ar    1  LIG1       -0.0180
     10 C          -1.7313    2.1840    0.4552 C.ar    1  LIG1       -0.0536
     11 C          -2.1872    3.3674   -0.0822 C.ar    1  LIG1       -0.0261
     12 C          -1.3956    4.0312   -0.9881 C.ar    1  LIG1        0.1234
     13 C          -0.1582    3.5299   -1.3631 C.ar    1  LIG1       -0.0261
     14 C           0.2646    2.3534   -0.8117 C.ar    1  LIG1       -0.0536
     15 F          -1.8481    5.1938   -1.5134 F       1  LIG1       -0.2055
     16 C          -1.0939   -0.2834    1.3644 C.2     1  LIG1        0.2382
     17 O          -1.0701   -0.5334    2.5895 O.2     1  LIG1       -0.2734
     18 N          -2.2483   -0.6807    0.6467 N.am    1  LIG1       -0.3110
     19 C          -3.3613   -1.3466    1.2812 C.3     1  LIG1        0.0379
     20 C          -4.4367   -1.6430    0.2669 C.3     1  LIG1        0.0742
     21 C          -3.9076   -2.4819   -0.8667 C.3     1  LIG1       -0.0231
     22 C          -5.1829   -3.2085   -1.3111 C.3     1  LIG1       -0.0271
     23 C          -5.9406   -3.2755   -0.0261 C.3     1  LIG1        0.0482
     24 O          -5.5194   -2.2732    0.8014 O.3     1  LIG1       -0.3750
     25 C           2.3890   -0.2029    0.9559 C.2     1  LIG1        0.2577
     26 O           3.3907   -0.0923    1.7663 O.2     1  LIG1       -0.2693
     27 C           2.6601   -1.0387   -0.2034 C.ar    1  LIG1        0.1153
     28 C           3.8607   -1.7007   -0.4592 C.ar    1  LIG1        0.0765
     29 C           3.9158   -2.4160   -1.5963 C.ar    1  LIG1        0.1554
     30 N           2.8266   -2.4286   -2.3718 N.ar    1  LIG1       -0.2031
     31 S           1.7356   -1.4788   -1.5673 S.2     1  LIG1        0.0190
     32 C           5.1209   -3.1911   -2.0343 C.2     1  LIG1        0.2624
     33 O           6.1494   -3.2032   -1.3415 O.2     1  LIG1       -0.2687
     34 N           5.1004   -3.9182   -3.2428 N.am    1  LIG1       -0.3240
     35 N           4.9964   -1.6216    0.4599 N.pl3   1  LIG1       -0.3551
     36 H           3.8856    5.1337    1.4229 H       1  LIG1        0.0623
     37 H           3.7472    2.6114    1.5313 H       1  LIG1        0.0626
     38 H           1.8105    6.4241    2.2223 H       1  LIG1        0.0693
     39 H           0.3874    1.2911    3.1162 H       1  LIG1        0.0519
     40 H           2.0674    0.7983    3.2510 H       1  LIG1        0.0519
     41 H           0.1639   -0.3166   -0.2579 H       1  LIG1        0.0648
     42 H          -2.3958    1.7092    1.1841 H       1  LIG1        0.0622
     43 H          -3.1748    3.7760    0.2113 H       1  LIG1        0.0646
     44 H           0.4396    4.0893   -2.0860 H       1  LIG1        0.0646
     45 H           1.2445    1.9796   -1.1243 H       1  LIG1        0.0622
     46 H          -2.3013   -0.4893   -0.3686 H       1  LIG1        0.1488
     47 H          -3.0114   -2.3418    1.6768 H       1  LIG1        0.0487
     48 H          -3.8048   -0.7325    2.0915 H       1  LIG1        0.0487
     49 H          -4.7563   -0.6678   -0.1630 H       1  LIG1        0.0611
     50 H          -3.1305   -3.1836   -0.5383 H       1  LIG1        0.0291
     51 H          -3.5270   -1.8504   -1.6995 H       1  LIG1        0.0291
     52 H          -4.9688   -4.1749   -1.7743 H       1  LIG1        0.0288
     53 H          -5.7020   -2.4921   -1.9996 H       1  LIG1        0.0288
     54 H          -5.6782   -4.2581    0.4579 H       1  LIG1        0.0560
     55 H          -7.0272   -3.2216   -0.2625 H       1  LIG1        0.0560
     56 H           4.5921   -4.8193   -3.3785 H       1  LIG1        0.1453
     57 H           5.6319   -3.5301   -4.0659 H       1  LIG1        0.1453
     58 H           5.8587   -1.1206    0.2080 H       1  LIG1        0.1424
     59 H           4.9497   -2.0775    1.3972 H       1  LIG1        0.1424
@<TRIPOS>BOND
     1     1     2   ar
     2     2     3   ar
     3     3     4   ar
     4     4     5   ar
     5     3     6    1
     6     6     7    1
     7     7     8    1
     8     8     9    1
     9     9    10   ar
    10    10    11   ar
    11    11    12   ar
    12    12    13   ar
    13    13    14   ar
    14    12    15    1
    15     8    16    1
    16    16    17    2
    17    16    18   am
    18    18    19    1
    19    19    20    1
    20    20    21    1
    21    21    22    1
    22    22    23    1
    23    23    24    1
    24     7    25   am
    25    25    26    2
    26    25    27    1
    27    27    28   ar
    28    28    29   ar
    29    29    30   ar
    30    30    31   ar
    31    29    32    1
    32    32    33    2
    33    32    34   am
    34    28    35    1
    35     5     1   ar
    36    14     9   ar
    37    24    20    1
    38    31    27   ar
    39     1    36    1
    40     2    37    1
    41     5    38    1
    42     6    39    1
    43     6    40    1
    44     8    41    1
    45    10    42    1
    46    11    43    1
    47    13    44    1
    48    14    45    1
    49    18    46    1
    50    19    47    1
    51    19    48    1
    52    20    49    1
    53    21    50    1
    54    21    51    1
    55    22    52    1
    56    22    53    1
    57    23    54    1
    58    23    55    1
    59    34    56    1
    60    34    57    1
    61    35    58    1
    62    35    59    1
