@<TRIPOS>MOLECULE
reference_ligand.pdb
 37 40 0 0 0
SMALL
GASTEIGER

@<TRIPOS>ATOM
      1  S         29.3410   12.4380   27.0580 S.O2    1  MID1        0.0773
      2  O1S       28.3630   11.8390   26.1820 O.2     1  MID1       -0.1516
      3  O2S       29.0620   12.8090   28.4350 O.2     1  MID1       -0.1516
      4  C1        31.7270   11.4390   27.9370 C.ar    1  MID1        0.0200
      5  C2        30.6400   11.2630   27.1350 C.ar    1  MID1        0.1236
      6  C3        30.5070   10.1480   26.3150 C.ar    1  MID1        0.0200
      7  C4        31.4640    9.1710   26.3000 C.ar    1  MID1        0.0014
      8  C5        33.5680    8.2670   27.1180 C.ar    1  MID1        0.0000
      9  C6        34.6900    8.4150   27.8780 C.ar    1  MID1        0.0000
     10  C7        34.8520    9.5850   28.6810 C.ar    1  MID1        0.0000
     11  C8        33.8930   10.5930   28.7020 C.ar    1  MID1        0.0000
     12  C9        32.7410   10.4530   27.9200 C.ar    1  MID1        0.0013
     13  C10       32.5820    9.2850   27.1330 C.ar    1  MID1        0.0001
     14  N         29.9850   13.7390   26.3060 N.3     1  MID1       -0.0678
     15  CA        30.0460   13.7400   24.8830 C.3     1  MID1        0.2017
     16  C         31.4080   14.0330   24.4730 C.2     1  MID1        0.2615
     17  O         32.3780   14.1170   25.2350 O.2     1  MID1       -0.2717
     18  N1        31.5060   14.2480   23.1380 N.am    1  MID1       -0.1962
     19  CA1       32.7930   14.5390   22.4860 C.3     1  MID1        0.1756
     20  CB        32.9780   13.4720   21.4620 C.2     1  MID1        0.2458
     21  O1        32.7440   13.5950   20.2550 O.2     1  MID1       -0.2730
     22  CB1       32.7220   15.8910   21.7900 C.3     1  MID1        0.0574
     23  CG        32.6760   16.9470   22.8070 C.ar    1  MID1       -0.0200
     24  CD1       33.8380   17.4680   23.3090 C.ar    1  MID1       -0.0039
     25  CD2       31.4630   17.3550   23.2950 C.ar    1  MID1       -0.0039
     26  CE1       33.7800   18.4850   24.2800 C.ar    1  MID1        0.0077
     27  CE2       31.3820   18.3620   24.2600 C.ar    1  MID1        0.0077
     28  CZ        32.5450   18.9280   24.7480 C.ar    1  MID1        0.0975
     29  CF        32.4750   19.9650   25.7860 C.2     1  MID1        0.4766
     30  NG1       31.2960   20.4290   26.2370 N.pl3   1  MID1        0.2047
     31  NG2       33.5310   20.7490   26.0440 N.pl3   1  MID1        0.2047
     32  N11       33.4730   12.2860   22.0110 N.am    1  MID1       -0.2782
     33  C21       33.7560   12.1980   23.4560 C.3     1  MID1        0.0934
     34  C31       33.0510   10.9910   24.0860 C.3     1  MID1        0.0216
     35  C41       33.3310    9.7150   23.2650 C.3     1  MID1        0.0035
     36  C51       32.9400    9.9200   21.7710 C.3     1  MID1        0.0216
     37  C61       33.6900   11.1160   21.1670 C.3     1  MID1        0.0934
@<TRIPOS>BOND
     1    21    20    2
     2    37    36    1
     3    37    32    1
     4    20    32   am
     5    20    19    1
     6    36    35    1
     7    22    19    1
     8    22    23    1
     9    32    33    1
    10    19    18    1
    11    23    25   ar
    12    23    24   ar
    13    18    16   am
    14    35    34    1
    15    25    27   ar
    16    24    26   ar
    17    33    34    1
    18    27    28   ar
    19    26    28   ar
    20    16    15    1
    21    16    17    2
    22    28    29    1
    23    15    14    1
    24    29    31    2
    25    29    30    1
    26     2     1    2
    27     7     6   ar
    28     7    13   ar
    29    14     1    1
    30     6     5   ar
    31     1     5    1
    32     1     3    2
    33     8    13   ar
    34     8     9   ar
    35    13    12   ar
    36     5     4   ar
    37     9    10   ar
    38    12     4   ar
    39    12    11   ar
    40    10    11   ar
